
 Created by Python create_sdf_string function

 34  0  0  0  0  0  0  0  0  0999 V2000
    0.0000    0.0000    0.0000 C   0  0  0  0  0  0  0  0  0  0  0  0
   -0.3458   -1.0555   -0.9527 C   0  0  0  0  0  0  0  0  0  0  0  0
    1.2155    0.7500    1.0598 C   0  0  0  0  0  0  0  0  0  0  0  0
    0.4700   -1.2192   -1.6946 C   0  0  0  0  0  0  0  0  0  0  0  0
    0.2218    1.2740   -1.5236 C   0  0  0  0  0  0  0  0  0  0  0  0
   -0.2786   -1.7092    1.4050 C   0  0  0  0  0  0  0  0  0  0  0  0
   -0.9574   -2.2771   -0.0131 C   0  0  0  0  0  0  0  0  0  0  0  0
   -1.5914    1.3540    0.4846 C   0  0  0  0  0  0  0  0  0  0  0  0
   -2.0920   -1.0437    1.0779 C   0  0  0  0  0  0  0  0  0  0  0  0
    1.8815   -0.7542    2.6497 C   0  0  0  0  0  0  0  0  0  0  0  0
    2.2471   -0.3530    0.8109 C   0  0  0  0  0  0  0  0  0  0  0  0
   -0.4939    2.2147    0.1893 C   0  0  0  0  0  0  0  0  0  0  0  0
   -0.0239   -2.0868    0.2138 C   0  0  0  0  0  0  0  0  0  0  0  0
    0.9000    1.4928    0.3974 C   0  0  0  0  0  0  0  0  0  0  0  0
    1.0420   -1.7187   -1.3735 C   0  0  0  0  0  0  0  0  0  0  0  0
   -0.5201   -0.6573    1.6389 C   0  0  0  0  0  0  0  0  0  0  0  0
   -1.6906    0.2603   -1.3134 C   0  0  0  0  0  0  0  0  0  0  0  0
   -1.5578    0.3626    1.0728 C   0  0  0  0  0  0  0  0  0  0  0  0
   -0.9788    1.0802   -0.8480 C   0  0  0  0  0  0  0  0  0  0  0  0
   -0.3256   -1.3820   -0.3362 C   0  0  0  0  0  0  0  0  0  0  0  0
    1.5837   -0.3865    0.5915 C   0  0  0  0  0  0  0  0  0  0  0  0
    0.1305   -0.8641    1.5652 C   0  0  0  0  0  0  0  0  0  0  0  0
   -0.2654   -0.2116   -2.0859 C   0  0  0  0  0  0  0  0  0  0  0  0
    0.6999   -1.3247   -0.5812 C   0  0  0  0  0  0  0  0  0  0  0  0
   -1.8519   -0.0882   -1.5697 C   0  0  0  0  0  0  0  0  0  0  0  0
   -2.1628    0.5141    0.7947 C   0  0  0  0  0  0  0  0  0  0  0  0
   -1.0604    0.8744    1.4907 C   0  0  0  0  0  0  0  0  0  0  0  0
   -0.5670   -1.6642   -0.6890 C   0  0  0  0  0  0  0  0  0  0  0  0
    0.8459    0.5932    0.5903 C   0  0  0  0  0  0  0  0  0  0  0  0
   -2.0558    0.8225   -0.3998 C   0  0  0  0  0  0  0  0  0  0  0  0
    0.8864   -0.2770    1.7964 C   0  0  0  0  0  0  0  0  0  0  0  0
    1.9404    1.4605    0.4155 C   0  0  0  0  0  0  0  0  0  0  0  0
   -1.2564   -1.4163   -0.9548 C   0  0  0  0  0  0  0  0  0  0  0  0
    1.7976    1.2189    0.4067 C   0  0  0  0  0  0  0  0  0  0  0  0
M  END
$$$$

 Created by Python create_sdf_string function

 34 52  0  0  0  0  0  0  0  0999 V2000
    8.6193   -7.1172   17.0307 O   0  0  0  0  0  0  0  0  0  0  0  0
    6.8163   -9.3917   18.6884 S   0  0  0  0  0  0  0  0  0  0  0  0
    6.5219   -7.5379   15.3993 N   0  0  0  0  0  0  0  0  0  0  0  0
    9.1107   -8.3839   16.8676 N   0  0  0  0  0  0  0  0  0  0  0  0
    8.1131   -7.8649   17.5891 C   0  0  0  0  0  0  0  0  0  0  0  0
    8.7485   -7.8653   15.1275 I   0  0  0  0  0  0  0  0  0  0  0  0
    8.5505   -9.2084   17.9630 O   0  0  0  0  0  0  0  0  0  0  0  0
    8.3711   -7.9935   17.7149 F   0  0  0  0  0  0  0  0  0  0  0  0
    6.5819   -7.1644   17.8932 N   0  0  0  0  0  0  0  0  0  0  0  0
    8.9430   -9.6185   14.3544 I   0  0  0  0  0  0  0  0  0  0  0  0
    7.1852   -7.2284   16.5759 S   0  0  0  0  0  0  0  0  0  0  0  0
    8.7832   -8.5360   16.5156 O   0  0  0  0  0  0  0  0  0  0  0  0
    7.1197   -8.9907   17.3440 P   0  0  0  0  0  0  0  0  0  0  0  0
    6.8304   -8.2497   14.2934 N   0  0  0  0  0  0  0  0  0  0  0  0
    6.5548   -6.6364   19.3144 N   0  0  0  0  0  0  0  0  0  0  0  0
    6.8745   -8.0302   18.4392 P   0  0  0  0  0  0  0  0  0  0  0  0
    6.4153   -8.5056   18.0880 C   0  0  0  0  0  0  0  0  0  0  0  0
    7.0047   -9.5139   19.3548 He  0  0  0  0  0  0  0  0  0  0  0  0
    7.9744   -9.2504   14.6465 He  0  0  0  0  0  0  0  0  0  0  0  0
    9.2717   -6.3304   17.2443 He  0  0  0  0  0  0  0  0  0  0  0  0
    7.8787   -5.5243   17.7522 He  0  0  0  0  0  0  0  0  0  0  0  0
    7.0080   -8.6253   18.3445 He  0  0  0  0  0  0  0  0  0  0  0  0
    6.5580   -9.1350   18.3970 He  0  0  0  0  0  0  0  0  0  0  0  0
    7.8912   -9.1452   16.2800 He  0  0  0  0  0  0  0  0  0  0  0  0
    8.8927   -8.8579   17.5629 He  0  0  0  0  0  0  0  0  0  0  0  0
    8.1782   -8.6594   16.1256 He  0  0  0  0  0  0  0  0  0  0  0  0
    8.3510   -7.0475   16.4302 He  0  0  0  0  0  0  0  0  0  0  0  0
    7.6123   -8.9372   18.5423 He  0  0  0  0  0  0  0  0  0  0  0  0
    8.0083   -9.6962   18.1034 He  0  0  0  0  0  0  0  0  0  0  0  0
    7.7975   -8.9154   18.2743 He  0  0  0  0  0  0  0  0  0  0  0  0
    6.7792   -8.5700   17.5740 He  0  0  0  0  0  0  0  0  0  0  0  0
    5.4590   -7.4172   18.5601 He  0  0  0  0  0  0  0  0  0  0  0  0
    7.8009   -8.8473   16.6642 He  0  0  0  0  0  0  0  0  0  0  0  0
    7.7825   -8.9988   16.7338 He  0  0  0  0  0  0  0  0  0  0  0  0
  1  2  4  0
  1  3  1  0
  1  7  2  0
  1  8  1  0
  1  9  1  0
  1 11  1  0
  1 13  3  0
  2  3  4  0
  2  5  2  0
  2  9  2  0
  2 12  2  0
  2 15  1  0
  2 17  1  0
  3  4  1  0
  3  6  4  0
  3  7  4  0
  3 10  4  0
  3 11  2  0
  3 12  1  0
  3 13  4  0
  3 14  4  0
  4  6  3  0
  4  8  1  0
  4 10  3  0
  4 14  2  0
  4 16  1  0
  4 17  1  0
  5  8  1  0
  5  9  1  0
  5 17  2  0
  6  9  1  0
  6 14  3  0
  7  8  4  0
  7 12  1  0
  8 10  3  0
  8 15  3  0
  8 16  4  0
  9 10  3  0
  9 11  2  0
  9 17  3  0
 10 13  2  0
 10 14  3  0
 11 13  4  0
 11 15  4  0
 12 14  4  0
 12 16  3  0
 13 14  3  0
 13 15  1  0
 13 17  1  0
 14 15  2  0
 15 17  2  0
 16 17  4  0
M  END
$$$$

 Created by Python create_sdf_string function

 34  1  0  0  0  0  0  0  0  0999 V2000
    6.5441   -9.2166   19.9053 F   0  0  0  0  0  0  0  0  0  0  0  0
    9.2415   -5.6796   16.8690 F   0  0  0  0  0  0  0  0  0  0  0  0
    7.4773   -9.3294   14.8448 F   0  0  0  0  0  0  0  0  0  0  0  0
    5.7926   -9.5063   19.0357 F   0  0  0  0  0  0  0  0  0  0  0  0
    6.2688   -7.0019   15.6147 F   0  0  0  0  0  0  0  0  0  0  0  0
    9.8871   -5.1680   17.2806 F   0  0  0  0  0  0  0  0  0  0  0  0
    9.1712   -4.8897   17.7506 F   0  0  0  0  0  0  0  0  0  0  0  0
    9.2635   -7.6337   17.2063 F   0  0  0  0  0  0  0  0  0  0  0  0
    8.8441   -6.7634   18.0449 F   0  0  0  0  0  0  0  0  0  0  0  0
    6.5250   -8.5180   18.7214 F   0  0  0  0  0  0  0  0  0  0  0  0
    5.4154   -9.4523   18.5293 F   0  0  0  0  0  0  0  0  0  0  0  0
    8.6256   -7.3955   15.1357 F   0  0  0  0  0  0  0  0  0  0  0  0
    7.3465   -9.1578   15.7768 F   0  0  0  0  0  0  0  0  0  0  0  0
    8.8441   -8.5448   18.3244 F   0  0  0  0  0  0  0  0  0  0  0  0
    9.1950   -6.9492   18.2223 F   0  0  0  0  0  0  0  0  0  0  0  0
    6.5480   -6.8589   17.6778 F   0  0  0  0  0  0  0  0  0  0  0  0
    8.2011   -9.3382   14.6509 F   0  0  0  0  0  0  0  0  0  0  0  0
    7.0409   -6.3772   16.2111 F   0  0  0  0  0  0  0  0  0  0  0  0
    9.3561   -8.2432   18.0972 F   0  0  0  0  0  0  0  0  0  0  0  0
    7.9846   -8.4771   15.5682 F   0  0  0  0  0  0  0  0  0  0  0  0
    8.7859   -5.7316   16.3445 F   0  0  0  0  0  0  0  0  0  0  0  0
    7.6540   -8.5393   19.1114 F   0  0  0  0  0  0  0  0  0  0  0  0
    8.1343   -9.5866   18.2936 F   0  0  0  0  0  0  0  0  0  0  0  0
    8.8577   -8.3651   16.4682 F   0  0  0  0  0  0  0  0  0  0  0  0
    7.9156   -8.4495   18.7704 F   0  0  0  0  0  0  0  0  0  0  0  0
    6.3047   -9.2641   17.1042 F   0  0  0  0  0  0  0  0  0  0  0  0
    6.3590   -8.0272   14.9690 F   0  0  0  0  0  0  0  0  0  0  0  0
    5.6003   -8.4133   17.4375 F   0  0  0  0  0  0  0  0  0  0  0  0
    4.8760   -7.4949   17.8656 F   0  0  0  0  0  0  0  0  0  0  0  0
    6.8594   -6.6267   18.7531 F   0  0  0  0  0  0  0  0  0  0  0  0
    6.4543   -7.7454   18.6724 F   0  0  0  0  0  0  0  0  0  0  0  0
    7.5465   -8.6836   16.1232 F   0  0  0  0  0  0  0  0  0  0  0  0
    7.4272   -9.1183   16.5083 F   0  0  0  0  0  0  0  0  0  0  0  0
    5.2954   -8.6742   17.9084 F   0  0  0  0  0  0  0  0  0  0  0  0
  2 21  1  0
M  END
$$$$

 Created by Python create_sdf_string function

 34 46  0  0  0  0  0  0  0  0999 V2000
    6.8694   -9.1600   14.1011 N   0  0  0  0  0  0  0  0  0  0  0  0
    9.2691   -5.9050   17.5665 F   0  0  0  0  0  0  0  0  0  0  0  0
    9.4861   -6.6416   15.4475 F   0  0  0  0  0  0  0  0  0  0  0  0
    8.3879   -7.7557   13.8576 C   0  0  0  0  0  0  0  0  0  0  0  0
    5.0998   -9.3245   15.7354 N   0  0  0  0  0  0  0  0  0  0  0  0
   10.0102   -8.7411   18.2606 P   0  0  0  0  0  0  0  0  0  0  0  0
    7.4455   -7.4331   16.9185 F   0  0  0  0  0  0  0  0  0  0  0  0
    7.5117   -6.6057   15.2948 C   0  0  0  0  0  0  0  0  0  0  0  0
   11.0994   -7.8911   16.0379 N   0  0  0  0  0  0  0  0  0  0  0  0
    7.8984   -9.6853   17.8742 F   0  0  0  0  0  0  0  0  0  0  0  0
    7.6008   -8.9271   16.1393 F   0  0  0  0  0  0  0  0  0  0  0  0
    5.1680   -7.4091   14.2798 O   0  0  0  0  0  0  0  0  0  0  0  0
    6.2292   -7.7910   17.0018 Se  0  0  0  0  0  0  0  0  0  0  0  0
    9.8780   -7.0889   16.8708 F   0  0  0  0  0  0  0  0  0  0  0  0
    6.8088   -7.2659   18.8827 C   0  0  0  0  0  0  0  0  0  0  0  0
    7.8374   -9.0523   16.4221 Br  0  0  0  0  0  0  0  0  0  0  0  0
    7.7723   -9.9653   19.6003 He  0  0  0  0  0  0  0  0  0  0  0  0
    9.7597   -5.2375   16.5812 He  0  0  0  0  0  0  0  0  0  0  0  0
    5.0905   -8.4165   19.6098 He  0  0  0  0  0  0  0  0  0  0  0  0
    5.6146   -5.7183   14.9197 He  0  0  0  0  0  0  0  0  0  0  0  0
    7.8294   -7.0175   19.7062 He  0  0  0  0  0  0  0  0  0  0  0  0
    8.8388   -5.7828   19.1262 He  0  0  0  0  0  0  0  0  0  0  0  0
    7.8473   -9.0070   19.3560 He  0  0  0  0  0  0  0  0  0  0  0  0
    6.5076   -9.7743   18.7904 He  0  0  0  0  0  0  0  0  0  0  0  0
   10.7705   -7.9295   16.2357 He  0  0  0  0  0  0  0  0  0  0  0  0
    8.6264   -7.6888   16.3715 He  0  0  0  0  0  0  0  0  0  0  0  0
    9.2777   -9.0065   16.4823 He  0  0  0  0  0  0  0  0  0  0  0  0
    9.4140   -4.6699   16.3470 He  0  0  0  0  0  0  0  0  0  0  0  0
    7.4003   -7.5644   17.9972 He  0  0  0  0  0  0  0  0  0  0  0  0
    8.0991   -8.6860   19.3419 He  0  0  0  0  0  0  0  0  0  0  0  0
    5.1902   -6.8527   16.1272 He  0  0  0  0  0  0  0  0  0  0  0  0
    5.8721   -7.8624   19.0253 He  0  0  0  0  0  0  0  0  0  0  0  0
    7.5077   -7.7554   15.6553 He  0  0  0  0  0  0  0  0  0  0  0  0
    4.1387   -9.0308   18.2564 He  0  0  0  0  0  0  0  0  0  0  0  0
  1  2  2  0
  1  3  2  0
  1  6  4  0
  1  8  2  0
  1  9  2  0
  1 10  4  0
  1 12  2  0
  1 16  4  0
  2  3  4  0
  2  4  2  0
  2  7  3  0
  2  9  3  0
  2 10  1  0
  2 12  3  0
  2 16  1  0
  3  6  4  0
  3  7  2  0
  3  8  3  0
  3  9  4  0
  3 11  3  0
  4  5  4  0
  4  8  4  0
  4 10  2  0
  4 13  2  0
  4 15  3  0
  5  6  2  0
  5  9  2  0
  5 10  3  0
  5 11  4  0
  5 13  2  0
  6  7  2  0
  6  8  1  0
  6 11  4  0
  6 13  1  0
  6 14  2  0
  6 16  2  0
  7  8  2  0
  7  9  4  0
  8 12  2  0
  8 15  3  0
  9 10  2  0
  9 12  1  0
 12 13  2  0
 12 14  2  0
 13 14  1  0
 15 16  1  0
M  END
$$$$

 Created by Python create_sdf_string function

 34  0  0  0  0  0  0  0  0  0999 V2000
    7.4980   -8.6616   19.3648 F   0  0  0  0  0  0  0  0  0  0  0  0
   10.0229   -4.5011   16.8091 F   0  0  0  0  0  0  0  0  0  0  0  0
    6.7428   -9.0086   15.2717 F   0  0  0  0  0  0  0  0  0  0  0  0
    5.6246   -8.5780   18.6430 F   0  0  0  0  0  0  0  0  0  0  0  0
    5.9905   -6.4547   15.3659 F   0  0  0  0  0  0  0  0  0  0  0  0
    9.6495   -5.1735   17.8014 F   0  0  0  0  0  0  0  0  0  0  0  0
    9.3398   -5.8691   16.0017 F   0  0  0  0  0  0  0  0  0  0  0  0
    8.4726   -6.4403   18.8969 F   0  0  0  0  0  0  0  0  0  0  0  0
    9.6052   -5.2418   18.8554 F   0  0  0  0  0  0  0  0  0  0  0  0
    7.8202   -8.1811   19.0470 F   0  0  0  0  0  0  0  0  0  0  0  0
    5.9360   -9.2201   18.2809 F   0  0  0  0  0  0  0  0  0  0  0  0
    8.3506   -7.8652   15.0429 F   0  0  0  0  0  0  0  0  0  0  0  0
    4.9930   -8.9613   15.9412 F   0  0  0  0  0  0  0  0  0  0  0  0
    9.6039   -7.8869   18.3658 F   0  0  0  0  0  0  0  0  0  0  0  0
    9.9788   -7.4774   17.1745 F   0  0  0  0  0  0  0  0  0  0  0  0
    7.4235   -6.9230   16.9318 F   0  0  0  0  0  0  0  0  0  0  0  0
    8.6980   -7.2505   16.4277 F   0  0  0  0  0  0  0  0  0  0  0  0
    7.4574   -6.3205   15.5162 F   0  0  0  0  0  0  0  0  0  0  0  0
    8.9353   -8.4632   16.5843 F   0  0  0  0  0  0  0  0  0  0  0  0
   10.1979   -7.3573   17.0705 F   0  0  0  0  0  0  0  0  0  0  0  0
    9.6760   -4.1636   16.4591 F   0  0  0  0  0  0  0  0  0  0  0  0
    7.4299   -7.1315   18.1376 F   0  0  0  0  0  0  0  0  0  0  0  0
    7.8434   -8.9067   17.5563 F   0  0  0  0  0  0  0  0  0  0  0  0
    7.3025   -8.8457   16.0839 F   0  0  0  0  0  0  0  0  0  0  0  0
    8.4015   -7.9401   18.9197 F   0  0  0  0  0  0  0  0  0  0  0  0
    4.8133   -7.2765   16.2103 F   0  0  0  0  0  0  0  0  0  0  0  0
    5.1460   -7.5177   15.1047 F   0  0  0  0  0  0  0  0  0  0  0  0
    5.5378   -7.7513   16.9723 F   0  0  0  0  0  0  0  0  0  0  0  0
    6.0341   -7.8030   18.4789 F   0  0  0  0  0  0  0  0  0  0  0  0
    9.8422   -6.2726   17.4669 F   0  0  0  0  0  0  0  0  0  0  0  0
    6.8062   -7.0613   18.5001 F   0  0  0  0  0  0  0  0  0  0  0  0
    7.6257   -8.8144   16.3854 F   0  0  0  0  0  0  0  0  0  0  0  0
    7.3584   -7.5160   15.4536 F   0  0  0  0  0  0  0  0  0  0  0  0
    4.3387   -8.9078   17.5505 F   0  0  0  0  0  0  0  0  0  0  0  0
M  END
$$$$

 Created by Python create_sdf_string function

 34 33  0  0  0  0  0  0  0  0999 V2000
    6.8248   -9.6430   15.9273 F   0  0  0  0  0  0  0  0  0  0  0  0
    6.2119   -7.5347   18.8032 P   0  0  0  0  0  0  0  0  0  0  0  0
    6.0131   -6.2271   15.6110 N   0  0  0  0  0  0  0  0  0  0  0  0
    7.0340   -5.2750   16.3280 F   0  0  0  0  0  0  0  0  0  0  0  0
    8.7021   -6.3451   16.9983 O   0  0  0  0  0  0  0  0  0  0  0  0
    4.9628   -8.9305   16.9160 O   0  0  0  0  0  0  0  0  0  0  0  0
    9.7722   -6.0403   14.7080 O   0  0  0  0  0  0  0  0  0  0  0  0
    5.7774   -7.5442   14.8674 O   0  0  0  0  0  0  0  0  0  0  0  0
   10.1933   -7.2122   19.8620 C   0  0  0  0  0  0  0  0  0  0  0  0
   11.0629   -8.3879   16.6481 F   0  0  0  0  0  0  0  0  0  0  0  0
    7.0685   -8.0282   16.5886 O   0  0  0  0  0  0  0  0  0  0  0  0
   10.4376   -7.3975   17.4489 C   0  0  0  0  0  0  0  0  0  0  0  0
    7.2075   -6.1313   19.7295 C   0  0  0  0  0  0  0  0  0  0  0  0
    6.2323   -6.2047   17.5487 P   0  0  0  0  0  0  0  0  0  0  0  0
    6.7016   -9.4367   15.9458 N   0  0  0  0  0  0  0  0  0  0  0  0
    4.0345   -9.5197   17.7246 C   0  0  0  0  0  0  0  0  0  0  0  0
    7.1399   -9.0039   17.9238 He  0  0  0  0  0  0  0  0  0  0  0  0
   10.7908   -4.7351   17.3136 He  0  0  0  0  0  0  0  0  0  0  0  0
    8.8956   -5.6698   18.3025 He  0  0  0  0  0  0  0  0  0  0  0  0
   10.7397   -6.4036   18.6277 He  0  0  0  0  0  0  0  0  0  0  0  0
    7.8949   -8.0019   21.0099 He  0  0  0  0  0  0  0  0  0  0  0  0
    7.5795   -6.7521   16.4459 He  0  0  0  0  0  0  0  0  0  0  0  0
    7.1993   -8.1080   16.2532 He  0  0  0  0  0  0  0  0  0  0  0  0
   10.4247   -8.2837   17.3096 He  0  0  0  0  0  0  0  0  0  0  0  0
    9.4298   -4.6838   15.5081 He  0  0  0  0  0  0  0  0  0  0  0  0
    8.3006   -9.3571   18.8497 He  0  0  0  0  0  0  0  0  0  0  0  0
    6.7687  -10.9947   16.2951 He  0  0  0  0  0  0  0  0  0  0  0  0
    7.8285   -6.3485   19.2500 He  0  0  0  0  0  0  0  0  0  0  0  0
    4.3467   -7.5433   16.7603 He  0  0  0  0  0  0  0  0  0  0  0  0
    4.2714   -7.9188   15.2392 He  0  0  0  0  0  0  0  0  0  0  0  0
    7.1481   -9.2402   15.7001 He  0  0  0  0  0  0  0  0  0  0  0  0
    6.7630   -6.4828   21.0634 He  0  0  0  0  0  0  0  0  0  0  0  0
   10.2415   -5.6986   18.0527 He  0  0  0  0  0  0  0  0  0  0  0  0
    7.3514   -8.3679   15.3323 He  0  0  0  0  0  0  0  0  0  0  0  0
  1 15  1  0
  1 16  2  0
  2  3  2  0
  2  4  4  0
  2  8  4  0
  2 10  4  0
  2 11  1  0
  3  4  2  0
  3  7  1  0
  4  8  4  0
  4 13  4  0
  5  6  2  0
  5  9  1  0
  5 10  1  0
  5 13  1  0
  6 13  1  0
  6 14  3  0
  7  8  2  0
  7 12  1  0
  7 15  2  0
  7 16  3  0
  8 10  3  0
  8 13  2  0
  9 16  1  0
 10 13  1  0
 10 14  1  0
 10 15  4  0
 10 16  2  0
 11 12  1  0
 12 13  2  0
 12 16  3  0
 13 14  2  0
 14 16  3  0
M  END
$$$$

 Created by Python create_sdf_string function

 34  0  0  0  0  0  0  0  0  0999 V2000
    6.9555   -8.6101   17.8601 F   0  0  0  0  0  0  0  0  0  0  0  0
   10.6509   -4.1149   17.3776 F   0  0  0  0  0  0  0  0  0  0  0  0
    6.5574   -9.5375   15.9181 F   0  0  0  0  0  0  0  0  0  0  0  0
    6.1718   -7.7501   18.4112 F   0  0  0  0  0  0  0  0  0  0  0  0
    6.1849   -6.5746   15.6771 F   0  0  0  0  0  0  0  0  0  0  0  0
    9.4161   -5.1061   18.4506 F   0  0  0  0  0  0  0  0  0  0  0  0
    7.7191   -5.4265   15.9169 F   0  0  0  0  0  0  0  0  0  0  0  0
    8.9342   -5.8474   17.2097 F   0  0  0  0  0  0  0  0  0  0  0  0
   10.5015   -5.7740   18.7416 F   0  0  0  0  0  0  0  0  0  0  0  0
    7.9496   -7.9579   19.5153 F   0  0  0  0  0  0  0  0  0  0  0  0
    4.6811   -8.7191   17.1109 F   0  0  0  0  0  0  0  0  0  0  0  0
    9.5612   -5.6881   15.6130 F   0  0  0  0  0  0  0  0  0  0  0  0
    5.4828   -7.3703   15.2161 F   0  0  0  0  0  0  0  0  0  0  0  0
    9.9174   -6.5248   19.2416 F   0  0  0  0  0  0  0  0  0  0  0  0
    9.8691   -8.0539   17.3861 F   0  0  0  0  0  0  0  0  0  0  0  0
    7.8189   -6.6276   16.3231 F   0  0  0  0  0  0  0  0  0  0  0  0
    7.5729   -7.8877   16.1912 F   0  0  0  0  0  0  0  0  0  0  0  0
    7.1177   -7.8560   16.8332 F   0  0  0  0  0  0  0  0  0  0  0  0
    9.6449   -7.9016   17.7411 F   0  0  0  0  0  0  0  0  0  0  0  0
   10.0134   -7.0329   17.9930 F   0  0  0  0  0  0  0  0  0  0  0  0
    9.7248   -4.0135   16.2411 F   0  0  0  0  0  0  0  0  0  0  0  0
    7.5598   -5.9926   18.8766 F   0  0  0  0  0  0  0  0  0  0  0  0
    8.2914   -8.2603   18.3348 F   0  0  0  0  0  0  0  0  0  0  0  0
    6.2102  -10.2619   16.4649 F   0  0  0  0  0  0  0  0  0  0  0  0
    8.2154   -6.0034   18.7718 F   0  0  0  0  0  0  0  0  0  0  0  0
    4.4037   -7.7874   16.7697 F   0  0  0  0  0  0  0  0  0  0  0  0
    4.2285   -8.0772   15.8143 F   0  0  0  0  0  0  0  0  0  0  0  0
    7.2908   -8.8513   15.6289 F   0  0  0  0  0  0  0  0  0  0  0  0
    6.7006   -6.6760   19.6453 F   0  0  0  0  0  0  0  0  0  0  0  0
   10.3618   -4.9737   18.2001 F   0  0  0  0  0  0  0  0  0  0  0  0
    6.5324   -6.6102   17.5596 F   0  0  0  0  0  0  0  0  0  0  0  0
    6.4678   -9.2342   15.8977 F   0  0  0  0  0  0  0  0  0  0  0  0
    7.7154   -8.2267   15.5323 F   0  0  0  0  0  0  0  0  0  0  0  0
    4.3729   -9.0157   17.4779 F   0  0  0  0  0  0  0  0  0  0  0  0
M  END
$$$$

 Created by Python create_sdf_string function

 34 52  0  0  0  0  0  0  0  0999 V2000
    7.5158   -7.2951   17.6640 O   0  0  0  0  0  0  0  0  0  0  0  0
    7.0261   -7.2437   18.4383 F   0  0  0  0  0  0  0  0  0  0  0  0
    5.4766   -7.5965   15.0222 C   0  0  0  0  0  0  0  0  0  0  0  0
   10.6327   -3.9948   17.4804 Cl  0  0  0  0  0  0  0  0  0  0  0  0
    9.7186   -6.4816   19.4304 Cl  0  0  0  0  0  0  0  0  0  0  0  0
    3.8775   -9.2502   14.9369 N   0  0  0  0  0  0  0  0  0  0  0  0
    8.7115   -7.3472   16.2828 F   0  0  0  0  0  0  0  0  0  0  0  0
    7.3302   -8.1519   16.8284 F   0  0  0  0  0  0  0  0  0  0  0  0
    9.2507   -8.6837   18.8733 N   0  0  0  0  0  0  0  0  0  0  0  0
    7.0041  -10.1244   16.6407 N   0  0  0  0  0  0  0  0  0  0  0  0
    5.5172   -7.9619   18.3629 C   0  0  0  0  0  0  0  0  0  0  0  0
    5.7783   -8.4379   16.1652 C   0  0  0  0  0  0  0  0  0  0  0  0
    8.3991   -9.4232   14.3371 Cl  0  0  0  0  0  0  0  0  0  0  0  0
    4.9132   -6.1115   18.5772 C   0  0  0  0  0  0  0  0  0  0  0  0
    5.7919   -7.9607   15.3423 Cl  0  0  0  0  0  0  0  0  0  0  0  0
    4.4912   -8.5869   18.1635 Cl  0  0  0  0  0  0  0  0  0  0  0  0
   12.0442   -3.2169   16.2943 He  0  0  0  0  0  0  0  0  0  0  0  0
    6.3390  -10.3861   17.2281 He  0  0  0  0  0  0  0  0  0  0  0  0
    8.9843   -7.1543   14.9780 He  0  0  0  0  0  0  0  0  0  0  0  0
    8.9077   -6.4461   15.6423 He  0  0  0  0  0  0  0  0  0  0  0  0
    9.5190   -7.4760   19.1012 He  0  0  0  0  0  0  0  0  0  0  0  0
   10.4481   -5.2723   18.1937 He  0  0  0  0  0  0  0  0  0  0  0  0
    5.0157   -7.5725   15.8109 He  0  0  0  0  0  0  0  0  0  0  0  0
   12.2050   -6.8155   20.3473 He  0  0  0  0  0  0  0  0  0  0  0  0
    7.1995   -5.7504   14.4979 He  0  0  0  0  0  0  0  0  0  0  0  0
    7.2861   -8.3003   17.2053 He  0  0  0  0  0  0  0  0  0  0  0  0
   10.3260   -7.7272   17.6969 He  0  0  0  0  0  0  0  0  0  0  0  0
    9.8847   -5.9476   19.0411 He  0  0  0  0  0  0  0  0  0  0  0  0
    9.3558   -4.9780   16.0882 He  0  0  0  0  0  0  0  0  0  0  0  0
    6.1358   -6.5376   19.1938 He  0  0  0  0  0  0  0  0  0  0  0  0
    8.4165   -6.5646   16.9741 He  0  0  0  0  0  0  0  0  0  0  0  0
    6.7470   -6.5371   20.0868 He  0  0  0  0  0  0  0  0  0  0  0  0
   10.1920   -6.4294   19.2334 He  0  0  0  0  0  0  0  0  0  0  0  0
    7.0088   -5.7420   15.3593 He  0  0  0  0  0  0  0  0  0  0  0  0
  1  2  2  0
  1  3  4  0
  1  5  1  0
  1  8  1  0
  1  9  1  0
  1 12  2  0
  2  3  2  0
  2  5  2  0
  2 12  1  0
  2 14  3  0
  2 15  2  0
  3  4  2  0
  3  6  4  0
  3  7  3  0
  3 11  1  0
  3 13  3  0
  3 16  3  0
  4  6  1  0
  4  7  4  0
  4  8  1  0
  4  9  1  0
  4 10  2  0
  4 11  2  0
  4 15  4  0
  4 16  1  0
  5  8  1  0
  5 10  1  0
  5 12  1  0
  5 13  4  0
  5 14  1  0
  6 11  1  0
  6 12  4  0
  6 15  4  0
  7  8  3  0
  7 11  1  0
  7 15  1  0
  8  9  1  0
  8 10  4  0
  8 11  3  0
  8 13  4  0
  8 14  2  0
  9 11  4  0
  9 13  4  0
 10 13  3  0
 10 16  4  0
 11 13  2  0
 12 13  1  0
 12 14  2  0
 12 16  4  0
 13 14  2  0
 13 16  2  0
 15 16  2  0
M  END
$$$$

 Created by Python create_sdf_string function

 34  1  0  0  0  0  0  0  0  0999 V2000
    7.7919   -7.3945   17.6315 F   0  0  0  0  0  0  0  0  0  0  0  0
   11.2031   -3.4352   16.6368 F   0  0  0  0  0  0  0  0  0  0  0  0
    5.8977   -9.8421   17.0212 F   0  0  0  0  0  0  0  0  0  0  0  0
    7.0737   -7.3582   18.2147 F   0  0  0  0  0  0  0  0  0  0  0  0
    5.1316   -7.5849   15.3594 F   0  0  0  0  0  0  0  0  0  0  0  0
   10.7559   -3.8101   17.4011 C   0  0  0  0  0  0  0  0  0  0  0  0
    8.6342   -7.2455   15.3413 F   0  0  0  0  0  0  0  0  0  0  0  0
    8.9111   -6.0034   15.9753 F   0  0  0  0  0  0  0  0  0  0  0  0
   10.2008   -5.9936   19.3209 F   0  0  0  0  0  0  0  0  0  0  0  0
    9.6495   -7.2427   18.8851 F   0  0  0  0  0  0  0  0  0  0  0  0
    3.8388   -8.7399   15.5667 F   0  0  0  0  0  0  0  0  0  0  0  0
   10.7051   -4.5157   18.1407 C   0  0  0  0  0  0  0  0  0  0  0  0
    4.5772   -7.7254   15.9766 F   0  0  0  0  0  0  0  0  0  0  0  0
   11.3648   -5.5502   19.8264 F   0  0  0  0  0  0  0  0  0  0  0  0
    8.7522   -7.3699   16.3465 F   0  0  0  0  0  0  0  0  0  0  0  0
    7.1587   -6.1327   15.2625 F   0  0  0  0  0  0  0  0  0  0  0  0
    7.6536   -8.3488   16.8303 F   0  0  0  0  0  0  0  0  0  0  0  0
    7.3564   -8.4407   17.2731 F   0  0  0  0  0  0  0  0  0  0  0  0
   10.0061   -7.3402   17.9850 F   0  0  0  0  0  0  0  0  0  0  0  0
   10.3938   -5.1297   19.0486 C   0  0  0  0  0  0  0  0  0  0  0  0
    9.7430   -4.2011   16.3208 C   0  0  0  0  0  0  0  0  0  0  0  0
    6.4086   -7.0451   18.5690 F   0  0  0  0  0  0  0  0  0  0  0  0
    9.0382   -8.1265   18.3662 F   0  0  0  0  0  0  0  0  0  0  0  0
    6.6706   -9.5725   16.3940 F   0  0  0  0  0  0  0  0  0  0  0  0
    8.7219   -6.0660   16.9317 F   0  0  0  0  0  0  0  0  0  0  0  0
    5.7327   -8.3821   18.0674 F   0  0  0  0  0  0  0  0  0  0  0  0
    5.3110   -8.5852   16.1196 C   0  0  0  0  0  0  0  0  0  0  0  0
    8.0237   -8.7062   15.2855 F   0  0  0  0  0  0  0  0  0  0  0  0
    6.9025   -6.7663   18.9039 F   0  0  0  0  0  0  0  0  0  0  0  0
   10.4317   -5.7123   19.2527 F   0  0  0  0  0  0  0  0  0  0  0  0
    5.2419   -7.2020   17.9322 F   0  0  0  0  0  0  0  0  0  0  0  0
    5.4594   -8.0622   15.3403 F   0  0  0  0  0  0  0  0  0  0  0  0
    7.1487   -6.1219   15.6537 F   0  0  0  0  0  0  0  0  0  0  0  0
    4.4578   -8.8664   17.5106 F   0  0  0  0  0  0  0  0  0  0  0  0
 16 33  1  0
M  END
$$$$

 Created by Python create_sdf_string function

 34109  0  0  0  0  0  0  0  0999 V2000
    8.3265   -6.0711   17.2505 Cl  0  0  0  0  0  0  0  0  0  0  0  0
    9.6838   -3.2187   17.0850 B   0  0  0  0  0  0  0  0  0  0  0  0
    6.3997  -10.5822   17.8821 O   0  0  0  0  0  0  0  0  0  0  0  0
    6.6358   -5.9678   18.2378 C   0  0  0  0  0  0  0  0  0  0  0  0
    6.4982   -7.7767   17.3438 O   0  0  0  0  0  0  0  0  0  0  0  0
    8.3607   -7.8973   15.5908 F   0  0  0  0  0  0  0  0  0  0  0  0
    8.4762   -6.2772   16.7063 N   0  0  0  0  0  0  0  0  0  0  0  0
    9.5550   -8.0854   20.1861 Se  0  0  0  0  0  0  0  0  0  0  0  0
    3.0473   -7.0187   14.7729 P   0  0  0  0  0  0  0  0  0  0  0  0
   10.6815   -5.5162   20.2183 Cl  0  0  0  0  0  0  0  0  0  0  0  0
    7.5531   -7.5291   17.3929 C   0  0  0  0  0  0  0  0  0  0  0  0
    6.8977   -8.6978   17.2984 P   0  0  0  0  0  0  0  0  0  0  0  0
    9.4679   -7.8402   16.4632 S   0  0  0  0  0  0  0  0  0  0  0  0
    9.4421   -6.2064   18.9731 F   0  0  0  0  0  0  0  0  0  0  0  0
   10.0789   -4.1962   17.4106 O   0  0  0  0  0  0  0  0  0  0  0  0
    5.9904   -9.0273   20.4961 N   0  0  0  0  0  0  0  0  0  0  0  0
    8.7871   -7.7028   18.7771 N   0  0  0  0  0  0  0  0  0  0  0  0
    9.1476   -5.8500   16.7264 C   0  0  0  0  0  0  0  0  0  0  0  0
    5.8598   -8.8117   18.8121 N   0  0  0  0  0  0  0  0  0  0  0  0
    7.6398   -5.9669   17.8852 F   0  0  0  0  0  0  0  0  0  0  0  0
   10.6954   -6.3967   18.8409 F   0  0  0  0  0  0  0  0  0  0  0  0
    7.1842   -6.2045   17.6903 Cl  0  0  0  0  0  0  0  0  0  0  0  0
    7.1614   -7.8014   14.9020 F   0  0  0  0  0  0  0  0  0  0  0  0
    7.6692   -6.8719   15.0318 C   0  0  0  0  0  0  0  0  0  0  0  0
    6.1682   -9.8368   18.3142 B   0  0  0  0  0  0  0  0  0  0  0  0
   12.0154   -2.4744   15.6436 He  0  0  0  0  0  0  0  0  0  0  0  0
   10.1737   -6.9120   19.1137 He  0  0  0  0  0  0  0  0  0  0  0  0
    3.5047   -8.2735   15.5125 He  0  0  0  0  0  0  0  0  0  0  0  0
    9.9046   -4.7836   18.4444 He  0  0  0  0  0  0  0  0  0  0  0  0
    7.4081   -5.7813   15.7113 He  0  0  0  0  0  0  0  0  0  0  0  0
    6.9573   -8.5528   17.6636 He  0  0  0  0  0  0  0  0  0  0  0  0
    6.7748   -8.5983   16.7890 He  0  0  0  0  0  0  0  0  0  0  0  0
    5.9347   -9.5861   16.8745 He  0  0  0  0  0  0  0  0  0  0  0  0
    8.6768   -8.7544   15.0443 He  0  0  0  0  0  0  0  0  0  0  0  0
  1  2  3  0
  1  4  3  0
  1  5  2  0
  1  8  1  0
  1  9  2  0
  1 10  4  0
  1 11  2  0
  1 17  3  0
  1 20  2  0
  1 22  2  0
  2  4  3  0
  2  7  3  0
  2  8  2  0
  2  9  3  0
  2 11  1  0
  2 15  4  0
  2 16  2  0
  2 20  3  0
  2 22  1  0
  2 23  4  0
  2 24  2  0
  3  7  4  0
  3 10  4  0
  3 11  3  0
  3 14  2  0
  3 19  1  0
  3 20  4  0
  3 24  1  0
  4  7  4  0
  4  8  2  0
  4  9  1  0
  4 11  3  0
  4 13  3  0
  4 14  1  0
  4 15  2  0
  4 20  1  0
  4 23  4  0
  5  8  4  0
  5 10  1  0
  5 12  1  0
  5 17  1  0
  5 20  2  0
  5 21  3  0
  6 10  3  0
  6 20  1  0
  7  8  1  0
  7 11  2  0
  7 12  3  0
  7 13  2  0
  7 19  1  0
  7 20  1  0
  7 22  3  0
  8  9  1  0
  8 12  1  0
  8 13  3  0
  8 15  3  0
  8 18  4  0
  8 19  1  0
  8 21  3  0
  8 22  4  0
  8 23  2  0
  9 15  1  0
  9 17  4  0
  9 18  4  0
  9 19  1  0
  9 20  4  0
  9 21  2  0
 10 11  1  0
 10 14  4  0
 10 23  4  0
 11 13  2  0
 11 15  2  0
 11 16  2  0
 11 17  3  0
 11 20  2  0
 11 23  1  0
 11 24  4  0
 12 13  1  0
 12 15  3  0
 12 18  2  0
 12 21  4  0
 12 22  3  0
 12 23  4  0
 12 24  4  0
 13 22  3  0
 14 15  4  0
 14 18  4  0
 14 19  2  0
 14 21  4  0
 14 23  1  0
 15 19  2  0
 15 21  3  0
 15 22  4  0
 15 24  3  0
 15 25  1  0
 16 22  2  0
 16 23  1  0
 18 20  2  0
 18 21  2  0
 18 23  2  0
 18 24  2  0
 18 25  1  0
 19 20  1  0
 19 21  2  0
 19 23  1  0
 20 22  4  0
 20 24  2  0
 20 25  2  0
 21 25  4  0
M  END
$$$$

 Created by Python create_sdf_string function

 34  0  0  0  0  0  0  0  0  0999 V2000
    8.7654   -5.6793   17.1854 F   0  0  0  0  0  0  0  0  0  0  0  0
   10.2523   -3.7082   16.7508 F   0  0  0  0  0  0  0  0  0  0  0  0
    5.6728  -10.0946   17.3029 F   0  0  0  0  0  0  0  0  0  0  0  0
    6.9835   -6.4445   18.1547 F   0  0  0  0  0  0  0  0  0  0  0  0
    5.8288   -7.6674   17.2470 F   0  0  0  0  0  0  0  0  0  0  0  0
   11.3883   -3.4054   16.2072 F   0  0  0  0  0  0  0  0  0  0  0  0
    8.2505   -8.0027   15.5541 F   0  0  0  0  0  0  0  0  0  0  0  0
    8.7480   -5.8707   16.5379 F   0  0  0  0  0  0  0  0  0  0  0  0
   10.1390   -6.4538   18.9849 F   0  0  0  0  0  0  0  0  0  0  0  0
    9.5973   -7.5787   19.2337 F   0  0  0  0  0  0  0  0  0  0  0  0
    4.0178   -8.5748   16.3313 F   0  0  0  0  0  0  0  0  0  0  0  0
   10.4939   -4.3663   18.4503 C   0  0  0  0  0  0  0  0  0  0  0  0
    4.1482   -7.6052   15.8905 F   0  0  0  0  0  0  0  0  0  0  0  0
   10.7160   -4.9397   19.9575 F   0  0  0  0  0  0  0  0  0  0  0  0
    7.7143   -7.5529   17.3071 F   0  0  0  0  0  0  0  0  0  0  0  0
    7.4618   -5.8191   15.7676 F   0  0  0  0  0  0  0  0  0  0  0  0
    6.6093   -8.7538   17.0707 F   0  0  0  0  0  0  0  0  0  0  0  0
    6.8280   -8.4748   17.7064 F   0  0  0  0  0  0  0  0  0  0  0  0
    9.1079   -7.9163   16.8289 F   0  0  0  0  0  0  0  0  0  0  0  0
    9.9490   -5.5966   18.9862 F   0  0  0  0  0  0  0  0  0  0  0  0
   10.6393   -3.8998   17.3455 C   0  0  0  0  0  0  0  0  0  0  0  0
    6.1993   -8.6192   19.2534 F   0  0  0  0  0  0  0  0  0  0  0  0
    8.9253   -7.6572   18.4498 F   0  0  0  0  0  0  0  0  0  0  0  0
    6.4376   -8.6830   16.4641 F   0  0  0  0  0  0  0  0  0  0  0  0
    9.5484   -4.8668   16.5994 F   0  0  0  0  0  0  0  0  0  0  0  0
    5.7058   -8.7012   18.2411 F   0  0  0  0  0  0  0  0  0  0  0  0
    5.3417   -9.3556   16.6055 F   0  0  0  0  0  0  0  0  0  0  0  0
    8.0910   -8.5218   15.3297 F   0  0  0  0  0  0  0  0  0  0  0  0
    7.9858   -6.1408   17.9506 F   0  0  0  0  0  0  0  0  0  0  0  0
   10.6950   -5.8053   18.8628 F   0  0  0  0  0  0  0  0  0  0  0  0
    7.3068   -6.3988   17.6922 F   0  0  0  0  0  0  0  0  0  0  0  0
    6.6567   -7.9158   15.2497 F   0  0  0  0  0  0  0  0  0  0  0  0
    7.4535   -6.8192   15.1840 F   0  0  0  0  0  0  0  0  0  0  0  0
    5.4930   -9.4959   17.9336 F   0  0  0  0  0  0  0  0  0  0  0  0
M  END
$$$$

 Created by Python create_sdf_string function

 34 52  0  0  0  0  0  0  0  0999 V2000
    9.5532   -4.5238   16.2225 F   0  0  0  0  0  0  0  0  0  0  0  0
    8.6390   -2.4919   16.3500 O   0  0  0  0  0  0  0  0  0  0  0  0
    5.3041   -9.0265   17.8264 F   0  0  0  0  0  0  0  0  0  0  0  0
    7.4037   -7.8520   17.9982 S   0  0  0  0  0  0  0  0  0  0  0  0
    6.4267   -8.6412   18.6330 P   0  0  0  0  0  0  0  0  0  0  0  0
   10.9191   -3.2624   16.2493 C   0  0  0  0  0  0  0  0  0  0  0  0
    8.5135   -6.6015   20.3116 C   0  0  0  0  0  0  0  0  0  0  0  0
    3.0298   -8.4332   17.4178 S   0  0  0  0  0  0  0  0  0  0  0  0
    9.5326   -4.6819   18.6025 N   0  0  0  0  0  0  0  0  0  0  0  0
    7.0709   -5.9597   17.8825 C   0  0  0  0  0  0  0  0  0  0  0  0
    9.9690   -6.7187   18.1230 S   0  0  0  0  0  0  0  0  0  0  0  0
    9.2371   -5.7665   18.1306 C   0  0  0  0  0  0  0  0  0  0  0  0
    9.9287   -7.0226   18.9297 C   0  0  0  0  0  0  0  0  0  0  0  0
    8.9496   -5.9166   15.5679 S   0  0  0  0  0  0  0  0  0  0  0  0
    4.8272  -10.6927   18.8529 F   0  0  0  0  0  0  0  0  0  0  0  0
    7.7693  -10.1926   16.2135 C   0  0  0  0  0  0  0  0  0  0  0  0
   11.7253   -5.3446   21.0196 P   0  0  0  0  0  0  0  0  0  0  0  0
    6.8382   -8.7283   13.7413 Cl  0  0  0  0  0  0  0  0  0  0  0  0
    8.4832   -9.5388   15.0751 He  0  0  0  0  0  0  0  0  0  0  0  0
    9.5346   -5.0689   17.3397 He  0  0  0  0  0  0  0  0  0  0  0  0
   11.0467   -6.8736   18.7841 He  0  0  0  0  0  0  0  0  0  0  0  0
    2.9977   -8.0993   16.5185 He  0  0  0  0  0  0  0  0  0  0  0  0
   10.7263   -3.9418   20.3632 He  0  0  0  0  0  0  0  0  0  0  0  0
    5.8279   -7.0312   15.4385 He  0  0  0  0  0  0  0  0  0  0  0  0
    6.7314   -7.9836   16.1005 He  0  0  0  0  0  0  0  0  0  0  0  0
    5.8705   -8.3905   17.9239 He  0  0  0  0  0  0  0  0  0  0  0  0
   10.3491   -4.3515   17.4284 He  0  0  0  0  0  0  0  0  0  0  0  0
    5.3871  -10.2526   18.6816 He  0  0  0  0  0  0  0  0  0  0  0  0
    6.7691   -8.8793   18.7191 He  0  0  0  0  0  0  0  0  0  0  0  0
    5.9896   -9.9416   14.8635 He  0  0  0  0  0  0  0  0  0  0  0  0
    8.3762   -7.1259   18.9132 He  0  0  0  0  0  0  0  0  0  0  0  0
    8.4581   -8.4791   17.0073 He  0  0  0  0  0  0  0  0  0  0  0  0
    8.1704   -6.6366   13.9856 He  0  0  0  0  0  0  0  0  0  0  0  0
    5.7548   -9.6939   18.5410 He  0  0  0  0  0  0  0  0  0  0  0  0
  1  4  2  0
  1  6  3  0
  1  9  1  0
  1 10  2  0
  1 11  1  0
  1 12  4  0
  1 17  1  0
  2  3  3  0
  2  4  1  0
  2  8  4  0
  2 11  4  0
  3  5  1  0
  3 10  2  0
  3 18  4  0
  4  5  2  0
  4  6  3  0
  4  7  2  0
  4  8  3  0
  4 12  1  0
  4 16  4  0
  5  9  3  0
  5 12  2  0
  5 13  2  0
  5 14  3  0
  6 11  3  0
  6 14  1  0
  6 16  2  0
  7  8  4  0
  7  9  3  0
  7 13  2  0
  7 18  4  0
  8 11  2  0
  8 15  4  0
  8 16  1  0
  8 17  3  0
  9 10  3  0
  9 12  4  0
 10 11  3  0
 10 12  2  0
 10 13  2  0
 10 15  4  0
 11 14  2  0
 11 18  1  0
 12 13  4  0
 12 17  2  0
 13 16  4  0
 14 15  3  0
 14 16  2  0
 14 17  2  0
 15 17  4  0
 15 18  1  0
 17 18  2  0
M  END
$$$$

 Created by Python create_sdf_string function

 34  0  0  0  0  0  0  0  0  0999 V2000
    9.8448   -4.2431   16.3567 F   0  0  0  0  0  0  0  0  0  0  0  0
    9.2377   -3.5768   15.8284 F   0  0  0  0  0  0  0  0  0  0  0  0
    4.8724   -8.8447   17.5400 F   0  0  0  0  0  0  0  0  0  0  0  0
    7.6289   -7.6273   17.8767 F   0  0  0  0  0  0  0  0  0  0  0  0
    6.3491   -8.4187   18.5195 F   0  0  0  0  0  0  0  0  0  0  0  0
   10.8695   -3.6133   16.5411 F   0  0  0  0  0  0  0  0  0  0  0  0
    7.9831   -8.6114   15.4217 F   0  0  0  0  0  0  0  0  0  0  0  0
    9.7745   -4.8477   17.2876 C   0  0  0  0  0  0  0  0  0  0  0  0
   10.7799   -6.3493   19.0855 F   0  0  0  0  0  0  0  0  0  0  0  0
    9.4749   -6.4842   19.6043 F   0  0  0  0  0  0  0  0  0  0  0  0
    3.6210   -9.0871   17.1304 C   0  0  0  0  0  0  0  0  0  0  0  0
   10.1675   -4.5522   18.9316 C   0  0  0  0  0  0  0  0  0  0  0  0
    3.8164   -8.5645   16.5774 F   0  0  0  0  0  0  0  0  0  0  0  0
   10.7278   -4.1251   20.1545 C   0  0  0  0  0  0  0  0  0  0  0  0
    7.3465   -6.4714   17.8499 F   0  0  0  0  0  0  0  0  0  0  0  0
    5.8544   -7.0372   15.7906 F   0  0  0  0  0  0  0  0  0  0  0  0
    6.7684   -7.6889   16.0463 C   0  0  0  0  0  0  0  0  0  0  0  0
    5.6163   -8.2634   17.7077 F   0  0  0  0  0  0  0  0  0  0  0  0
    9.8021   -6.6057   18.2594 F   0  0  0  0  0  0  0  0  0  0  0  0
    9.5195   -5.6886   18.2009 C   0  0  0  0  0  0  0  0  0  0  0  0
   10.5112   -4.0920   17.6227 C   0  0  0  0  0  0  0  0  0  0  0  0
    4.9113   -9.8686   18.3254 F   0  0  0  0  0  0  0  0  0  0  0  0
    9.8674   -6.9119   18.9981 F   0  0  0  0  0  0  0  0  0  0  0  0
    6.8468   -8.4202   18.5749 F   0  0  0  0  0  0  0  0  0  0  0  0
    8.5841   -5.8051   16.0568 F   0  0  0  0  0  0  0  0  0  0  0  0
    4.2248  -10.3627   18.2771 F   0  0  0  0  0  0  0  0  0  0  0  0
    5.9188   -9.2839   15.5618 F   0  0  0  0  0  0  0  0  0  0  0  0
    7.3065   -9.1495   16.1793 F   0  0  0  0  0  0  0  0  0  0  0  0
    8.6731   -7.2556   18.5969 F   0  0  0  0  0  0  0  0  0  0  0  0
   11.1217   -5.0865   20.7070 C   0  0  0  0  0  0  0  0  0  0  0  0
    8.4818   -8.1653   17.1393 F   0  0  0  0  0  0  0  0  0  0  0  0
    6.7980   -8.5254   15.1072 F   0  0  0  0  0  0  0  0  0  0  0  0
    7.7590   -6.8578   15.1882 F   0  0  0  0  0  0  0  0  0  0  0  0
    5.3885   -9.3776   18.2847 F   0  0  0  0  0  0  0  0  0  0  0  0
M  END
$$$$

 Created by Python create_sdf_string function

 34 12  0  0  0  0  0  0  0  0999 V2000
    9.3246   -6.8178   19.1919 S   0  0  0  0  0  0  0  0  0  0  0  0
   10.9612   -4.6359   18.9806 F   0  0  0  0  0  0  0  0  0  0  0  0
   10.4968   -5.7176   17.4956 S   0  0  0  0  0  0  0  0  0  0  0  0
    6.2439   -8.8309   17.8730 N   0  0  0  0  0  0  0  0  0  0  0  0
    6.0447   -5.1252   16.9478 Cl  0  0  0  0  0  0  0  0  0  0  0  0
    6.6684   -9.8808   16.4941 F   0  0  0  0  0  0  0  0  0  0  0  0
    9.8772   -7.2153   19.5085 N   0  0  0  0  0  0  0  0  0  0  0  0
   11.1530   -5.0267   19.5491 N   0  0  0  0  0  0  0  0  0  0  0  0
    7.9331   -8.8924   13.4957 P   0  0  0  0  0  0  0  0  0  0  0  0
   10.0437   -4.4533   16.4620 He  0  0  0  0  0  0  0  0  0  0  0  0
   10.9267   -3.5220   16.2997 He  0  0  0  0  0  0  0  0  0  0  0  0
    4.8248   -8.5430   18.0113 He  0  0  0  0  0  0  0  0  0  0  0  0
    8.1612   -6.8138   16.6547 He  0  0  0  0  0  0  0  0  0  0  0  0
    5.8536   -8.8795   19.2140 He  0  0  0  0  0  0  0  0  0  0  0  0
   11.3666   -2.5870   14.8092 He  0  0  0  0  0  0  0  0  0  0  0  0
    6.6723   -8.4280   14.5980 He  0  0  0  0  0  0  0  0  0  0  0  0
    9.8111   -4.3551   15.8932 He  0  0  0  0  0  0  0  0  0  0  0  0
    9.9062   -8.0614   19.5864 He  0  0  0  0  0  0  0  0  0  0  0  0
    3.6467   -8.9001   16.6763 He  0  0  0  0  0  0  0  0  0  0  0  0
    9.1896   -3.2416   18.0588 He  0  0  0  0  0  0  0  0  0  0  0  0
    4.5889   -7.8482   16.5247 He  0  0  0  0  0  0  0  0  0  0  0  0
   10.5073   -3.7096   18.9135 He  0  0  0  0  0  0  0  0  0  0  0  0
    6.7018   -7.7730   17.3064 He  0  0  0  0  0  0  0  0  0  0  0  0
    5.2196   -6.0330   15.2873 He  0  0  0  0  0  0  0  0  0  0  0  0
    6.2971   -7.5451   15.0702 He  0  0  0  0  0  0  0  0  0  0  0  0
    3.5250   -9.1639   17.9494 He  0  0  0  0  0  0  0  0  0  0  0  0
   10.5117   -5.9282   18.0831 He  0  0  0  0  0  0  0  0  0  0  0  0
    5.0837   -9.5530   18.7179 He  0  0  0  0  0  0  0  0  0  0  0  0
    8.9449   -7.1393   18.2203 He  0  0  0  0  0  0  0  0  0  0  0  0
    4.0898   -9.8858   18.4170 He  0  0  0  0  0  0  0  0  0  0  0  0
    5.5390  -11.2281   15.4986 He  0  0  0  0  0  0  0  0  0  0  0  0
    8.7316   -8.3583   18.0343 He  0  0  0  0  0  0  0  0  0  0  0  0
    8.8329   -6.4677   16.0517 He  0  0  0  0  0  0  0  0  0  0  0  0
    6.8902   -7.4518   18.2333 He  0  0  0  0  0  0  0  0  0  0  0  0
  1  5  4  0
  1  7  3  0
  2  3  3  0
  3  5  2  0
  3  7  4  0
  3  9  1  0
  4  8  1  0
  5  7  4  0
  5  8  2  0
  5  9  2  0
  6  7  3  0
  6  8  1  0
M  END
$$$$

 Created by Python create_sdf_string function

 34  1  0  0  0  0  0  0  0  0999 V2000
   10.1434   -4.2159   16.4403 C   0  0  0  0  0  0  0  0  0  0  0  0
   11.0605   -3.5585   16.4597 F   0  0  0  0  0  0  0  0  0  0  0  0
    4.6956   -8.7098   17.5287 F   0  0  0  0  0  0  0  0  0  0  0  0
    8.1351   -6.8417   16.5624 F   0  0  0  0  0  0  0  0  0  0  0  0
    5.8797   -8.6906   18.7179 F   0  0  0  0  0  0  0  0  0  0  0  0
   11.3227   -3.4323   15.4254 F   0  0  0  0  0  0  0  0  0  0  0  0
    6.7571   -8.3378   15.4432 C   0  0  0  0  0  0  0  0  0  0  0  0
    9.8105   -4.1143   16.1048 F   0  0  0  0  0  0  0  0  0  0  0  0
    9.5959   -6.7395   18.8110 F   0  0  0  0  0  0  0  0  0  0  0  0
    9.6518   -7.7971   18.8505 F   0  0  0  0  0  0  0  0  0  0  0  0
    3.6757   -8.9274   16.6897 F   0  0  0  0  0  0  0  0  0  0  0  0
   10.1952   -3.7220   17.8799 F   0  0  0  0  0  0  0  0  0  0  0  0
    4.4918   -8.1314   16.5237 F   0  0  0  0  0  0  0  0  0  0  0  0
   10.8390   -3.8254   18.9590 F   0  0  0  0  0  0  0  0  0  0  0  0
    6.8479   -7.7602   16.9814 C   0  0  0  0  0  0  0  0  0  0  0  0
    5.8005   -6.6817   15.5971 F   0  0  0  0  0  0  0  0  0  0  0  0
    6.4811   -7.4213   15.3349 F   0  0  0  0  0  0  0  0  0  0  0  0
    3.5603   -9.4838   17.4304 C   0  0  0  0  0  0  0  0  0  0  0  0
   10.8903   -4.4247   19.0464 F   0  0  0  0  0  0  0  0  0  0  0  0
   10.4067   -5.7349   18.3490 F   0  0  0  0  0  0  0  0  0  0  0  0
   10.4379   -5.2243   17.5795 F   0  0  0  0  0  0  0  0  0  0  0  0
    4.9594   -9.5742   18.1861 F   0  0  0  0  0  0  0  0  0  0  0  0
    8.9587   -7.1239   17.9268 F   0  0  0  0  0  0  0  0  0  0  0  0
    6.2101   -8.6069   17.6949 F   0  0  0  0  0  0  0  0  0  0  0  0
    7.0103   -6.0836   16.3032 F   0  0  0  0  0  0  0  0  0  0  0  0
    3.8718   -9.9883   17.9346 C   0  0  0  0  0  0  0  0  0  0  0  0
    5.5962  -10.1341   15.8399 F   0  0  0  0  0  0  0  0  0  0  0  0
    6.6746   -9.3695   16.5751 F   0  0  0  0  0  0  0  0  0  0  0  0
    9.8624   -6.8365   19.0050 F   0  0  0  0  0  0  0  0  0  0  0  0
   10.8019   -4.7748   19.7671 F   0  0  0  0  0  0  0  0  0  0  0  0
    8.4647   -8.1576   17.5976 F   0  0  0  0  0  0  0  0  0  0  0  0
    7.9845   -8.5448   15.1590 F   0  0  0  0  0  0  0  0  0  0  0  0
    8.6018   -6.4642   16.0497 F   0  0  0  0  0  0  0  0  0  0  0  0
    7.0864   -7.3683   17.9725 F   0  0  0  0  0  0  0  0  0  0  0  0
  7 17  1  0
M  END
$$$$

 Created by Python create_sdf_string function

 34 62  0  0  0  0  0  0  0  0999 V2000
    9.8844   -1.9706   16.7902 C   0  0  0  0  0  0  0  0  0  0  0  0
    8.3405   -6.0391   16.8060 Br  0  0  0  0  0  0  0  0  0  0  0  0
   11.2582   -4.3966   14.0110 C   0  0  0  0  0  0  0  0  0  0  0  0
    7.9237   -7.5499   16.3357 C   0  0  0  0  0  0  0  0  0  0  0  0
    8.0265   -5.8405   15.5065 F   0  0  0  0  0  0  0  0  0  0  0  0
   10.1435   -6.0355   17.8782 Cl  0  0  0  0  0  0  0  0  0  0  0  0
    4.7737  -10.0432   16.2418 O   0  0  0  0  0  0  0  0  0  0  0  0
   10.6421   -5.1401   17.4625 S   0  0  0  0  0  0  0  0  0  0  0  0
    8.1857   -5.9569   15.9876 Cl  0  0  0  0  0  0  0  0  0  0  0  0
    3.4809   -8.1820   16.9170 C   0  0  0  0  0  0  0  0  0  0  0  0
   10.5213   -5.6462   17.6449 O   0  0  0  0  0  0  0  0  0  0  0  0
    4.1979   -9.7846   17.5883 C   0  0  0  0  0  0  0  0  0  0  0  0
    7.8121   -7.3613   16.6185 C   0  0  0  0  0  0  0  0  0  0  0  0
    5.8130  -10.0357   13.6926 F   0  0  0  0  0  0  0  0  0  0  0  0
    6.2890   -8.9169   15.8732 F   0  0  0  0  0  0  0  0  0  0  0  0
    9.1561   -6.6999   21.4378 F   0  0  0  0  0  0  0  0  0  0  0  0
    8.7100   -6.9656   18.2484 S   0  0  0  0  0  0  0  0  0  0  0  0
    9.2312  -10.0569   15.9470 C   0  0  0  0  0  0  0  0  0  0  0  0
    5.4609   -5.7022   18.5641 P   0  0  0  0  0  0  0  0  0  0  0  0
   12.7448   -4.2726   15.7962 He  0  0  0  0  0  0  0  0  0  0  0  0
    5.1984   -9.2481   18.8494 He  0  0  0  0  0  0  0  0  0  0  0  0
    5.5582   -9.1330   18.5457 He  0  0  0  0  0  0  0  0  0  0  0  0
    8.9842   -7.6309   19.1786 He  0  0  0  0  0  0  0  0  0  0  0  0
    3.3715   -8.3867   14.3310 He  0  0  0  0  0  0  0  0  0  0  0  0
   11.0856   -4.7827   20.6158 He  0  0  0  0  0  0  0  0  0  0  0  0
    5.2492   -7.9914   15.1868 He  0  0  0  0  0  0  0  0  0  0  0  0
    6.0551   -8.5221   14.4145 He  0  0  0  0  0  0  0  0  0  0  0  0
    9.2259   -5.6299   18.6725 He  0  0  0  0  0  0  0  0  0  0  0  0
   10.5868   -6.4704   18.8254 He  0  0  0  0  0  0  0  0  0  0  0  0
    9.8059   -8.1948   18.3035 He  0  0  0  0  0  0  0  0  0  0  0  0
    6.3921   -8.3811   16.0737 He  0  0  0  0  0  0  0  0  0  0  0  0
    3.5315  -11.4106   18.4454 He  0  0  0  0  0  0  0  0  0  0  0  0
   11.1806   -4.7883   18.7481 He  0  0  0  0  0  0  0  0  0  0  0  0
    8.7379   -6.0436   15.1554 He  0  0  0  0  0  0  0  0  0  0  0  0
  1  2  3  0
  1  3  2  0
  1  4  4  0
  1  8  4  0
  1 11  1  0
  1 12  4  0
  1 13  1  0
  1 15  1  0
  1 16  3  0
  2  5  1  0
  2  8  3  0
  2 11  1  0
  2 12  3  0
  2 16  4  0
  2 18  2  0
  2 19  3  0
  3  8  1  0
  3 11  3  0
  3 15  2  0
  3 17  1  0
  3 18  1  0
  3 19  2  0
  4  5  2  0
  4  8  4  0
  4 12  4  0
  4 13  2  0
  4 14  2  0
  5  9  3  0
  5 15  1  0
  6  8  4  0
  6 15  2  0
  6 17  4  0
  6 19  4  0
  7 12  3  0
  7 13  4  0
  7 14  2  0
  7 16  2  0
  7 17  4  0
  7 19  1  0
  8 11  1  0
  8 14  2  0
  8 15  4  0
  8 18  1  0
  9 10  4  0
  9 11  2  0
  9 12  2  0
  9 13  1  0
  9 14  1  0
  9 17  4  0
  9 19  4  0
 10 11  3  0
 10 12  2  0
 10 16  3  0
 10 17  1  0
 11 16  4  0
 12 17  3  0
 12 19  1  0
 13 19  3  0
 14 15  3  0
 14 19  1  0
 16 18  3  0
 16 19  4  0
M  END
$$$$

 Created by Python create_sdf_string function

 34  0  0  0  0  0  0  0  0  0999 V2000
   10.3479   -3.3809   16.6461 C   0  0  0  0  0  0  0  0  0  0  0  0
   11.8924   -3.7533   16.2110 C   0  0  0  0  0  0  0  0  0  0  0  0
    5.0903   -9.4756   18.2304 F   0  0  0  0  0  0  0  0  0  0  0  0
    8.4784   -6.0293   16.9357 F   0  0  0  0  0  0  0  0  0  0  0  0
    5.5550   -8.9308   18.1842 F   0  0  0  0  0  0  0  0  0  0  0  0
   11.2641   -3.8167   15.3407 F   0  0  0  0  0  0  0  0  0  0  0  0
    7.6093   -7.6419   16.1925 C   0  0  0  0  0  0  0  0  0  0  0  0
    7.7292   -5.9102   15.7554 F   0  0  0  0  0  0  0  0  0  0  0  0
   10.1219   -5.6640   18.1738 C   0  0  0  0  0  0  0  0  0  0  0  0
    9.0716   -7.5055   18.7072 F   0  0  0  0  0  0  0  0  0  0  0  0
    4.5093   -9.6597   16.7493 C   0  0  0  0  0  0  0  0  0  0  0  0
   10.7541   -4.4631   17.3284 C   0  0  0  0  0  0  0  0  0  0  0  0
    3.6653   -8.7288   15.3860 F   0  0  0  0  0  0  0  0  0  0  0  0
   10.8548   -4.5597   20.3466 F   0  0  0  0  0  0  0  0  0  0  0  0
    8.0681   -5.9514   16.1741 F   0  0  0  0  0  0  0  0  0  0  0  0
    5.0534   -8.1275   15.5677 F   0  0  0  0  0  0  0  0  0  0  0  0
    6.1060   -8.2841   15.2904 F   0  0  0  0  0  0  0  0  0  0  0  0
    3.7609   -9.0038   16.7635 C   0  0  0  0  0  0  0  0  0  0  0  0
    9.6921   -5.4327   18.8491 C   0  0  0  0  0  0  0  0  0  0  0  0
   10.4095   -5.9632   19.0103 C   0  0  0  0  0  0  0  0  0  0  0  0
   10.5718   -4.8277   17.5646 C   0  0  0  0  0  0  0  0  0  0  0  0
    4.1055   -9.8141   17.5578 C   0  0  0  0  0  0  0  0  0  0  0  0
    9.5001   -7.8174   18.1377 F   0  0  0  0  0  0  0  0  0  0  0  0
    6.4218   -8.3322   16.3146 C   0  0  0  0  0  0  0  0  0  0  0  0
    7.7117   -7.3645   16.6924 C   0  0  0  0  0  0  0  0  0  0  0  0
    3.7347  -10.6500   18.2884 F   0  0  0  0  0  0  0  0  0  0  0  0
    5.7800   -9.7003   15.0764 F   0  0  0  0  0  0  0  0  0  0  0  0
    6.0810   -8.7845   16.0690 F   0  0  0  0  0  0  0  0  0  0  0  0
   10.3275   -6.0170   20.3576 F   0  0  0  0  0  0  0  0  0  0  0  0
   11.0097   -4.4477   18.9117 C   0  0  0  0  0  0  0  0  0  0  0  0
    8.7983   -6.9948   18.2261 F   0  0  0  0  0  0  0  0  0  0  0  0
    8.4781   -8.5693   15.9987 F   0  0  0  0  0  0  0  0  0  0  0  0
    8.7070   -6.0079   15.6290 F   0  0  0  0  0  0  0  0  0  0  0  0
    6.6673   -6.9332   18.1192 F   0  0  0  0  0  0  0  0  0  0  0  0
M  END
$$$$

 Created by Python create_sdf_string function

 34 78  0  0  0  0  0  0  0  0999 V2000
   11.4488   -3.3485   17.7800 C   0  0  0  0  0  0  0  0  0  0  0  0
   10.3931   -6.2968   17.1611 N   0  0  0  0  0  0  0  0  0  0  0  0
    4.1546   -9.9836   19.5210 Cl  0  0  0  0  0  0  0  0  0  0  0  0
    4.1415  -10.0066   17.2314 O   0  0  0  0  0  0  0  0  0  0  0  0
   10.8099   -2.1391   17.6434 B   0  0  0  0  0  0  0  0  0  0  0  0
    5.3556   -8.3389   15.5740 N   0  0  0  0  0  0  0  0  0  0  0  0
   10.6877   -2.8415   18.6421 N   0  0  0  0  0  0  0  0  0  0  0  0
    9.1314   -4.8011   15.9747 N   0  0  0  0  0  0  0  0  0  0  0  0
    7.1049   -7.2607   15.6321 C   0  0  0  0  0  0  0  0  0  0  0  0
    3.5166   -7.6111   16.9726 F   0  0  0  0  0  0  0  0  0  0  0  0
   10.4007   -3.5952   18.6569 O   0  0  0  0  0  0  0  0  0  0  0  0
    9.4896   -5.9902   18.7708 C   0  0  0  0  0  0  0  0  0  0  0  0
    4.8750   -9.6900   18.0575 C   0  0  0  0  0  0  0  0  0  0  0  0
    7.2988   -6.3359   18.1930 S   0  0  0  0  0  0  0  0  0  0  0  0
    4.8050   -7.7211   16.7437 C   0  0  0  0  0  0  0  0  0  0  0  0
    6.5506   -9.1981   17.4072 P   0  0  0  0  0  0  0  0  0  0  0  0
   11.1788   -4.4972   17.5450 F   0  0  0  0  0  0  0  0  0  0  0  0
    6.4315   -8.0796   17.2505 C   0  0  0  0  0  0  0  0  0  0  0  0
    7.5068   -9.0439   17.3603 N   0  0  0  0  0  0  0  0  0  0  0  0
    6.6641   -7.0053   18.5143 C   0  0  0  0  0  0  0  0  0  0  0  0
   12.4613   -4.6497   15.9733 He  0  0  0  0  0  0  0  0  0  0  0  0
    7.4234   -9.5438   17.0283 He  0  0  0  0  0  0  0  0  0  0  0  0
   10.8320   -2.9305   15.1638 He  0  0  0  0  0  0  0  0  0  0  0  0
    7.9530   -5.6797   16.9482 He  0  0  0  0  0  0  0  0  0  0  0  0
    7.1008   -5.2689   16.3710 He  0  0  0  0  0  0  0  0  0  0  0  0
    9.6281   -4.6162   18.4066 He  0  0  0  0  0  0  0  0  0  0  0  0
   10.2045   -8.6268   18.2654 He  0  0  0  0  0  0  0  0  0  0  0  0
    6.1055   -8.3314   15.8688 He  0  0  0  0  0  0  0  0  0  0  0  0
    9.0858   -4.1586   17.2623 He  0  0  0  0  0  0  0  0  0  0  0  0
    5.8136   -8.9179   17.4273 He  0  0  0  0  0  0  0  0  0  0  0  0
    4.4049   -9.1932   18.0111 He  0  0  0  0  0  0  0  0  0  0  0  0
    6.4742  -10.1837   15.0713 He  0  0  0  0  0  0  0  0  0  0  0  0
   10.9259   -7.0724   20.5626 He  0  0  0  0  0  0  0  0  0  0  0  0
    8.6654   -6.3583   15.5390 He  0  0  0  0  0  0  0  0  0  0  0  0
  1  2  4  0
  1  3  2  0
  1  4  4  0
  1  6  2  0
  1  8  2  0
  1 10  4  0
  1 11  2  0
  1 14  1  0
  1 16  4  0
  2  3  4  0
  2 13  3  0
  2 15  3  0
  2 16  2  0
  2 17  3  0
  2 18  3  0
  3  5  2  0
  3  9  4  0
  3 10  1  0
  3 12  2  0
  3 13  3  0
  3 14  3  0
  3 18  3  0
  3 19  3  0
  3 20  2  0
  4  8  1  0
  4  9  3  0
  4 13  2  0
  4 15  4  0
  4 16  4  0
  4 18  2  0
  4 19  2  0
  4 20  2  0
  5 10  1  0
  5 12  3  0
  5 15  4  0
  5 16  1  0
  5 17  1  0
  6 11  3  0
  6 12  4  0
  6 16  2  0
  7 12  4  0
  7 16  4  0
  7 17  1  0
  7 18  1  0
  7 19  4  0
  8  9  3  0
  8 11  3  0
  8 12  3  0
  8 13  3  0
  8 15  4  0
  8 19  2  0
  9 10  1  0
  9 12  1  0
  9 13  3  0
  9 15  2  0
 10 14  4  0
 10 15  1  0
 11 12  4  0
 11 13  1  0
 11 14  1  0
 11 17  1  0
 11 18  3  0
 11 19  2  0
 12 16  4  0
 12 17  4  0
 12 18  1  0
 12 19  1  0
 13 17  2  0
 13 18  3  0
 13 20  2  0
 14 16  2  0
 14 18  3  0
 14 19  2  0
 15 18  4  0
 15 19  3  0
 15 20  2  0
 18 19  1  0
 19 20  4  0
M  END
$$$$

 Created by Python create_sdf_string function

 34  1  0  0  0  0  0  0  0  0999 V2000
   11.2724   -3.4526   17.6297 C   0  0  0  0  0  0  0  0  0  0  0  0
   11.9409   -3.8091   16.2267 C   0  0  0  0  0  0  0  0  0  0  0  0
    7.4811   -8.8411   16.8441 F   0  0  0  0  0  0  0  0  0  0  0  0
    9.9855   -6.0771   17.5844 F   0  0  0  0  0  0  0  0  0  0  0  0
    4.3376  -10.2701   18.4325 F   0  0  0  0  0  0  0  0  0  0  0  0
   11.2983   -3.5502   15.6181 F   0  0  0  0  0  0  0  0  0  0  0  0
    8.1935   -6.0300   16.9509 F   0  0  0  0  0  0  0  0  0  0  0  0
    7.4257   -5.8940   15.9918 F   0  0  0  0  0  0  0  0  0  0  0  0
   10.0924   -4.7204   18.8077 C   0  0  0  0  0  0  0  0  0  0  0  0
    9.5020   -7.9360   18.2751 F   0  0  0  0  0  0  0  0  0  0  0  0
    3.8087   -9.5802   17.3865 C   0  0  0  0  0  0  0  0  0  0  0  0
   11.3105   -2.7933   17.7317 C   0  0  0  0  0  0  0  0  0  0  0  0
    5.3678   -8.3111   15.7632 F   0  0  0  0  0  0  0  0  0  0  0  0
   11.0041   -3.3975   18.8143 C   0  0  0  0  0  0  0  0  0  0  0  0
    9.3780   -4.5982   16.2258 F   0  0  0  0  0  0  0  0  0  0  0  0
    6.1128   -8.2648   15.8839 F   0  0  0  0  0  0  0  0  0  0  0  0
    7.1278   -7.1466   15.5998 F   0  0  0  0  0  0  0  0  0  0  0  0
    3.8206   -8.1041   16.6520 F   0  0  0  0  0  0  0  0  0  0  0  0
   10.7303   -3.9978   19.1125 C   0  0  0  0  0  0  0  0  0  0  0  0
    9.7274   -6.0690   18.6606 C   0  0  0  0  0  0  0  0  0  0  0  0
    9.6652   -4.3530   16.9937 C   0  0  0  0  0  0  0  0  0  0  0  0
    4.7812   -9.7362   17.9232 C   0  0  0  0  0  0  0  0  0  0  0  0
    7.7267   -6.5985   17.9283 F   0  0  0  0  0  0  0  0  0  0  0  0
    5.5684   -8.8486   17.3995 F   0  0  0  0  0  0  0  0  0  0  0  0
    4.6971   -7.9918   16.6493 F   0  0  0  0  0  0  0  0  0  0  0  0
    4.1975   -9.1704   17.5283 C   0  0  0  0  0  0  0  0  0  0  0  0
    6.6512   -9.4502   15.4507 F   0  0  0  0  0  0  0  0  0  0  0  0
    6.3689   -8.9028   17.4129 F   0  0  0  0  0  0  0  0  0  0  0  0
   10.3496   -6.3218   19.6772 F   0  0  0  0  0  0  0  0  0  0  0  0
   11.0879   -4.1626   17.6218 C   0  0  0  0  0  0  0  0  0  0  0  0
    6.7546   -7.8680   17.1716 C   0  0  0  0  0  0  0  0  0  0  0  0
    7.8207   -8.3946   17.3071 F   0  0  0  0  0  0  0  0  0  0  0  0
    8.5399   -6.7789   15.8221 F   0  0  0  0  0  0  0  0  0  0  0  0
    6.7835   -7.3599   18.1390 F   0  0  0  0  0  0  0  0  0  0  0  0
 18 25  1  0
M  END
$$$$

 Created by Python create_sdf_string function

 34 98  0  0  0  0  0  0  0  0999 V2000
   10.3850   -2.6049   18.4929 S   0  0  0  0  0  0  0  0  0  0  0  0
   12.4134   -5.1306   15.6601 N   0  0  0  0  0  0  0  0  0  0  0  0
   10.3550   -6.3039   17.0406 B   0  0  0  0  0  0  0  0  0  0  0  0
    5.0733  -10.8889   20.2716 F   0  0  0  0  0  0  0  0  0  0  0  0
    9.5817   -6.5024   17.4841 S   0  0  0  0  0  0  0  0  0  0  0  0
    8.9440   -4.3922   20.4501 C   0  0  0  0  0  0  0  0  0  0  0  0
    4.1179  -10.8809   17.3453 N   0  0  0  0  0  0  0  0  0  0  0  0
   12.2042   -3.6413   17.6829 O   0  0  0  0  0  0  0  0  0  0  0  0
    6.2557   -6.2281   16.4961 F   0  0  0  0  0  0  0  0  0  0  0  0
   10.7324   -2.1765   18.4756 N   0  0  0  0  0  0  0  0  0  0  0  0
    8.1801   -4.2989   15.7864 O   0  0  0  0  0  0  0  0  0  0  0  0
    6.0199   -7.8020   15.4483 F   0  0  0  0  0  0  0  0  0  0  0  0
    6.5192   -6.4311   14.9505 P   0  0  0  0  0  0  0  0  0  0  0  0
    5.0584   -7.8100   16.8053 C   0  0  0  0  0  0  0  0  0  0  0  0
   10.5137   -6.0904   17.8271 F   0  0  0  0  0  0  0  0  0  0  0  0
    9.6447   -2.1005   16.5903 F   0  0  0  0  0  0  0  0  0  0  0  0
    7.0922   -5.0737   17.6957 N   0  0  0  0  0  0  0  0  0  0  0  0
    5.9076   -8.9117   18.8972 Cl  0  0  0  0  0  0  0  0  0  0  0  0
    3.9890   -8.7849   16.4540 S   0  0  0  0  0  0  0  0  0  0  0  0
    6.9373   -7.9380   18.4024 C   0  0  0  0  0  0  0  0  0  0  0  0
   12.0151   -5.2903   18.8056 N   0  0  0  0  0  0  0  0  0  0  0  0
    7.1159   -9.4062   18.1532 O   0  0  0  0  0  0  0  0  0  0  0  0
    9.6121   -6.5789   15.4762 N   0  0  0  0  0  0  0  0  0  0  0  0
    7.0364   -9.0337   16.7775 He  0  0  0  0  0  0  0  0  0  0  0  0
   13.0375   -3.9826   15.9768 He  0  0  0  0  0  0  0  0  0  0  0  0
    9.5851   -6.3913   16.0006 He  0  0  0  0  0  0  0  0  0  0  0  0
   11.1148   -8.0979   18.4329 He  0  0  0  0  0  0  0  0  0  0  0  0
   10.1432   -3.0174   19.1652 He  0  0  0  0  0  0  0  0  0  0  0  0
    6.3050   -9.6049   19.3940 He  0  0  0  0  0  0  0  0  0  0  0  0
    2.7078   -8.2159   16.6340 He  0  0  0  0  0  0  0  0  0  0  0  0
    6.5551   -9.1849   16.7227 He  0  0  0  0  0  0  0  0  0  0  0  0
   11.3254   -4.6607   20.5935 He  0  0  0  0  0  0  0  0  0  0  0  0
    7.4106   -7.3143   18.6227 He  0  0  0  0  0  0  0  0  0  0  0  0
    5.8711   -7.1802   16.9291 He  0  0  0  0  0  0  0  0  0  0  0  0
  1  4  2  0
  1  6  3  0
  1  7  4  0
  1 10  1  0
  1 12  2  0
  1 13  3  0
  1 15  1  0
  1 18  2  0
  1 22  1  0
  2  6  4  0
  2  8  2  0
  2 15  2  0
  2 17  4  0
  2 19  1  0
  2 22  3  0
  2 23  1  0
  3  5  3  0
  3  8  1  0
  3 12  4  0
  3 13  3  0
  3 16  1  0
  3 18  2  0
  4  6  4  0
  4  7  1  0
  4  8  2  0
  4 10  2  0
  4 11  4  0
  4 15  4  0
  4 16  3  0
  4 17  4  0
  4 21  3  0
  4 22  4  0
  4 23  1  0
  5  6  3  0
  5 11  3  0
  5 14  3  0
  5 17  3  0
  5 21  1  0
  5 23  2  0
  6  8  1  0
  6 14  1  0
  6 15  1  0
  6 19  1  0
  6 21  2  0
  7 10  4  0
  7 12  3  0
  7 14  3  0
  7 15  4  0
  7 16  3  0
  7 18  1  0
  7 19  1  0
  7 21  4  0
  8 11  1  0
  8 12  1  0
  8 15  4  0
  8 21  2  0
  8 22  4  0
  9 12  3  0
  9 13  1  0
  9 14  1  0
  9 15  1  0
 10 11  1  0
 10 13  4  0
 10 14  4  0
 10 17  3  0
 10 22  1  0
 11 12  4  0
 11 13  4  0
 11 14  1  0
 11 16  3  0
 11 17  1  0
 11 19  1  0
 11 20  4  0
 11 23  3  0
 12 13  2  0
 12 21  4  0
 12 23  4  0
 13 15  3  0
 13 17  4  0
 13 18  4  0
 13 19  4  0
 14 16  1  0
 14 17  2  0
 14 19  2  0
 14 20  3  0
 14 22  4  0
 14 23  2  0
 16 18  1  0
 16 19  1  0
 16 21  4  0
 16 23  2  0
 17 18  3  0
 17 19  3  0
 18 22  3  0
 18 23  3  0
 19 22  2  0
 19 23  4  0
 20 23  3  0
M  END
$$$$

 Created by Python create_sdf_string function

 34  3  0  0  0  0  0  0  0  0999 V2000
   10.9721   -3.2725   18.3496 C   0  0  0  0  0  0  0  0  0  0  0  0
   11.8411   -4.1283   16.1142 C   0  0  0  0  0  0  0  0  0  0  0  0
    7.4375   -8.5435   16.5553 F   0  0  0  0  0  0  0  0  0  0  0  0
   10.1549   -5.9460   17.2720 C   0  0  0  0  0  0  0  0  0  0  0  0
    4.7152  -10.2727   18.6507 F   0  0  0  0  0  0  0  0  0  0  0  0
   12.2266   -3.7167   16.0755 C   0  0  0  0  0  0  0  0  0  0  0  0
    9.2255   -6.3999   16.2599 F   0  0  0  0  0  0  0  0  0  0  0  0
    9.4600   -6.5539   17.6400 C   0  0  0  0  0  0  0  0  0  0  0  0
   10.0075   -4.2884   20.2015 F   0  0  0  0  0  0  0  0  0  0  0  0
   10.1150   -7.6024   18.4701 F   0  0  0  0  0  0  0  0  0  0  0  0
    4.1846   -9.9222   17.6441 C   0  0  0  0  0  0  0  0  0  0  0  0
   11.8167   -3.8514   17.2904 C   0  0  0  0  0  0  0  0  0  0  0  0
    6.5271   -6.5655   16.0350 F   0  0  0  0  0  0  0  0  0  0  0  0
   11.1122   -2.8516   18.2356 C   0  0  0  0  0  0  0  0  0  0  0  0
    8.6952   -4.7844   16.0161 F   0  0  0  0  0  0  0  0  0  0  0  0
    6.0819   -7.9341   15.6687 F   0  0  0  0  0  0  0  0  0  0  0  0
    6.8063   -6.6072   15.2480 F   0  0  0  0  0  0  0  0  0  0  0  0
    4.9475   -8.0797   16.6752 C   0  0  0  0  0  0  0  0  0  0  0  0
   10.7379   -3.6685   19.3425 C   0  0  0  0  0  0  0  0  0  0  0  0
   10.4628   -5.7988   18.2399 F   0  0  0  0  0  0  0  0  0  0  0  0
   10.3729   -3.4378   16.3745 F   0  0  0  0  0  0  0  0  0  0  0  0
    6.0144   -9.1050   18.6792 F   0  0  0  0  0  0  0  0  0  0  0  0
    7.9064   -5.9611   17.2524 F   0  0  0  0  0  0  0  0  0  0  0  0
    5.9505   -8.8539   18.2119 F   0  0  0  0  0  0  0  0  0  0  0  0
    3.4694   -8.7528   16.5850 F   0  0  0  0  0  0  0  0  0  0  0  0
    4.1002   -8.7917   16.6604 C   0  0  0  0  0  0  0  0  0  0  0  0
    6.5772   -8.7982   16.7468 F   0  0  0  0  0  0  0  0  0  0  0  0
    7.3546   -7.8544   17.8979 F   0  0  0  0  0  0  0  0  0  0  0  0
   11.1065   -4.6404   20.2539 F   0  0  0  0  0  0  0  0  0  0  0  0
   11.6621   -5.1029   18.7495 F   0  0  0  0  0  0  0  0  0  0  0  0
    7.1675   -8.7483   17.5845 F   0  0  0  0  0  0  0  0  0  0  0  0
    7.9326   -7.3450   18.0961 F   0  0  0  0  0  0  0  0  0  0  0  0
    8.9839   -6.7642   15.8216 F   0  0  0  0  0  0  0  0  0  0  0  0
    5.9409   -7.3475   16.6763 F   0  0  0  0  0  0  0  0  0  0  0  0
  2  6  1  0
 13 17  1  0
 13 34  1  0
M  END
$$$$

 Created by Python create_sdf_string function

 34 84  0  0  0  0  0  0  0  0999 V2000
   11.0712   -1.7947   18.6127 F   0  0  0  0  0  0  0  0  0  0  0  0
   10.8086   -3.1249   17.1836 P   0  0  0  0  0  0  0  0  0  0  0  0
    7.0198   -8.8278   15.8756 B   0  0  0  0  0  0  0  0  0  0  0  0
    9.9704   -7.4534   16.2624 P   0  0  0  0  0  0  0  0  0  0  0  0
    8.7014   -8.3291   17.8874 C   0  0  0  0  0  0  0  0  0  0  0  0
    9.6362   -4.5532   21.5402 C   0  0  0  0  0  0  0  0  0  0  0  0
   10.3534   -5.2599   18.4103 Se  0  0  0  0  0  0  0  0  0  0  0  0
   10.8611   -2.5185   17.8542 Se  0  0  0  0  0  0  0  0  0  0  0  0
    6.9213   -7.6086   15.8362 P   0  0  0  0  0  0  0  0  0  0  0  0
    7.7930   -7.1066   12.7470 O   0  0  0  0  0  0  0  0  0  0  0  0
    4.6513   -6.8816   15.5049 F   0  0  0  0  0  0  0  0  0  0  0  0
   11.3615   -4.0568   18.6680 S   0  0  0  0  0  0  0  0  0  0  0  0
   10.7846   -3.5806   17.4479 C   0  0  0  0  0  0  0  0  0  0  0  0
    5.0504   -8.3447   18.5115 F   0  0  0  0  0  0  0  0  0  0  0  0
    7.9820   -6.7482   16.0629 N   0  0  0  0  0  0  0  0  0  0  0  0
    6.0738   -8.9810   18.7283 C   0  0  0  0  0  0  0  0  0  0  0  0
    3.7401   -9.3537   16.7149 F   0  0  0  0  0  0  0  0  0  0  0  0
    7.7080   -9.1552   19.7281 F   0  0  0  0  0  0  0  0  0  0  0  0
   11.5557   -4.6593   20.7347 F   0  0  0  0  0  0  0  0  0  0  0  0
    8.6371   -6.8432   18.6604 N   0  0  0  0  0  0  0  0  0  0  0  0
    8.7379   -7.3601   16.2320 F   0  0  0  0  0  0  0  0  0  0  0  0
    9.9425   -5.3822   16.6309 He  0  0  0  0  0  0  0  0  0  0  0  0
    5.8521   -9.7918   19.9776 He  0  0  0  0  0  0  0  0  0  0  0  0
   12.3871   -3.4118   16.0500 He  0  0  0  0  0  0  0  0  0  0  0  0
    4.5415   -9.2790   19.2795 He  0  0  0  0  0  0  0  0  0  0  0  0
   12.1751   -4.5646   17.6944 He  0  0  0  0  0  0  0  0  0  0  0  0
    6.8292   -5.3011   15.4877 He  0  0  0  0  0  0  0  0  0  0  0  0
    8.7093   -4.1796   14.9887 He  0  0  0  0  0  0  0  0  0  0  0  0
   10.0262   -6.6926   18.4086 He  0  0  0  0  0  0  0  0  0  0  0  0
    3.6919   -8.0138   17.7179 He  0  0  0  0  0  0  0  0  0  0  0  0
    4.6728   -9.2578   15.4331 He  0  0  0  0  0  0  0  0  0  0  0  0
   11.0900   -5.9170   19.6260 He  0  0  0  0  0  0  0  0  0  0  0  0
    7.2225  -10.0366   18.0467 He  0  0  0  0  0  0  0  0  0  0  0  0
    8.2306   -8.5258   15.8022 He  0  0  0  0  0  0  0  0  0  0  0  0
  1  2  2  0
  1  3  4  0
  1  4  4  0
  1  8  1  0
  1 16  1  0
  1 18  2  0
  1 21  3  0
  2  5  2  0
  2  7  1  0
  2  8  1  0
  2  9  2  0
  2 10  2  0
  2 11  2  0
  2 13  4  0
  2 16  4  0
  2 20  1  0
  3  6  1  0
  3  7  3  0
  3  9  3  0
  3 10  4  0
  3 13  2  0
  3 15  3  0
  3 16  1  0
  3 17  4  0
  3 21  2  0
  4  6  2  0
  4  8  1  0
  4 10  2  0
  4 11  4  0
  4 13  4  0
  4 18  2  0
  4 20  2  0
  5  6  1  0
  5  7  4  0
  5  8  2  0
  5 11  1  0
  5 12  1  0
  5 14  1  0
  5 16  4  0
  5 18  2  0
  5 21  1  0
  6  7  2  0
  6  8  2  0
  6 12  1  0
  6 14  1  0
  6 16  1  0
  6 17  1  0
  6 18  2  0
  6 21  4  0
  7 13  1  0
  7 15  3  0
  7 18  2  0
  7 20  4  0
  7 21  1  0
  8  9  2  0
  8 10  3  0
  8 16  1  0
  8 20  3  0
  8 21  4  0
  9 15  3  0
  9 16  3  0
 10 14  4  0
 10 15  3  0
 10 18  4  0
 10 19  4  0
 10 20  4  0
 11 15  4  0
 11 16  1  0
 11 20  3  0
 12 17  4  0
 12 20  4  0
 12 21  3  0
 13 21  2  0
 14 17  4  0
 14 18  3  0
 14 19  3  0
 15 16  4  0
 15 17  3  0
 15 18  3  0
 15 19  1  0
 15 20  4  0
 17 19  1  0
 18 20  3  0
 20 21  3  0
M  END
$$$$

 Created by Python create_sdf_string function

 34  0  0  0  0  0  0  0  0  0999 V2000
   11.2476   -2.3993   18.5778 O   0  0  0  0  0  0  0  0  0  0  0  0
   11.1706   -3.3885   16.9049 C   0  0  0  0  0  0  0  0  0  0  0  0
    6.9340   -8.6210   15.9989 F   0  0  0  0  0  0  0  0  0  0  0  0
    9.8685   -5.0082   16.7654 C   0  0  0  0  0  0  0  0  0  0  0  0
    5.9716   -8.9922   19.0179 F   0  0  0  0  0  0  0  0  0  0  0  0
   11.9508   -3.4382   15.9813 F   0  0  0  0  0  0  0  0  0  0  0  0
    9.3112   -7.1977   16.9147 F   0  0  0  0  0  0  0  0  0  0  0  0
    8.7005   -8.0402   17.7468 F   0  0  0  0  0  0  0  0  0  0  0  0
   10.6456   -4.3118   20.8945 C   0  0  0  0  0  0  0  0  0  0  0  0
   10.5196   -5.2136   18.7197 C   0  0  0  0  0  0  0  0  0  0  0  0
    4.8102   -9.3997   18.1910 F   0  0  0  0  0  0  0  0  0  0  0  0
   11.5693   -4.3045   17.7611 C   0  0  0  0  0  0  0  0  0  0  0  0
    7.3381   -5.9387   15.6282 F   0  0  0  0  0  0  0  0  0  0  0  0
   11.1813   -3.0140   17.8898 C   0  0  0  0  0  0  0  0  0  0  0  0
    9.1422   -4.0739   15.8267 F   0  0  0  0  0  0  0  0  0  0  0  0
    6.8029   -7.5491   15.8665 C   0  0  0  0  0  0  0  0  0  0  0  0
    7.8964   -7.5124   14.7753 F   0  0  0  0  0  0  0  0  0  0  0  0
    5.0334   -7.4534   15.9517 F   0  0  0  0  0  0  0  0  0  0  0  0
   11.1698   -4.1182   19.1370 C   0  0  0  0  0  0  0  0  0  0  0  0
   10.0132   -6.6632   18.5713 F   0  0  0  0  0  0  0  0  0  0  0  0
   10.9632   -3.7079   17.1252 C   0  0  0  0  0  0  0  0  0  0  0  0
    5.3223   -8.3956   17.8619 F   0  0  0  0  0  0  0  0  0  0  0  0
    8.0459   -6.7080   16.1855 C   0  0  0  0  0  0  0  0  0  0  0  0
    6.2382   -8.5671   18.1401 F   0  0  0  0  0  0  0  0  0  0  0  0
    3.8522   -8.7836   16.8877 F   0  0  0  0  0  0  0  0  0  0  0  0
    4.1032   -8.5207   17.1526 F   0  0  0  0  0  0  0  0  0  0  0  0
    4.8288   -8.8049   15.9419 F   0  0  0  0  0  0  0  0  0  0  0  0
    7.7210   -8.3716   18.7759 F   0  0  0  0  0  0  0  0  0  0  0  0
   11.2036   -4.3742   20.5227 C   0  0  0  0  0  0  0  0  0  0  0  0
   10.6471   -5.6074   19.7301 F   0  0  0  0  0  0  0  0  0  0  0  0
    7.1318   -9.0296   17.4596 F   0  0  0  0  0  0  0  0  0  0  0  0
    9.0018   -6.8593   18.3959 F   0  0  0  0  0  0  0  0  0  0  0  0
    8.6972   -7.4037   16.5542 F   0  0  0  0  0  0  0  0  0  0  0  0
    8.0666   -8.2783   15.9450 C   0  0  0  0  0  0  0  0  0  0  0  0
M  END
$$$$

 Created by Python create_sdf_string function

 34 48  0  0  0  0  0  0  0  0999 V2000
   11.1732   -1.5484   18.3861 P   0  0  0  0  0  0  0  0  0  0  0  0
    9.8205   -4.1619   15.2313 O   0  0  0  0  0  0  0  0  0  0  0  0
    9.5569   -7.4793   16.8989 O   0  0  0  0  0  0  0  0  0  0  0  0
   10.0042   -4.6384   19.8717 Cl  0  0  0  0  0  0  0  0  0  0  0  0
   11.3362   -5.7469   18.7027 Cl  0  0  0  0  0  0  0  0  0  0  0  0
   10.6448   -3.8124   18.5945 N   0  0  0  0  0  0  0  0  0  0  0  0
    6.6687   -5.1575   15.0417 P   0  0  0  0  0  0  0  0  0  0  0  0
   13.1203   -2.7594   17.6171 Se  0  0  0  0  0  0  0  0  0  0  0  0
    6.8108   -9.0425   13.2150 F   0  0  0  0  0  0  0  0  0  0  0  0
    5.9393   -7.4557   16.1521 F   0  0  0  0  0  0  0  0  0  0  0  0
   11.0716   -4.6116   19.2752 P   0  0  0  0  0  0  0  0  0  0  0  0
    7.6353   -5.4582   15.3644 F   0  0  0  0  0  0  0  0  0  0  0  0
    3.5708   -8.5500   15.3881 F   0  0  0  0  0  0  0  0  0  0  0  0
    2.2188   -8.1955   16.0953 O   0  0  0  0  0  0  0  0  0  0  0  0
   13.0574   -6.6260   20.0028 F   0  0  0  0  0  0  0  0  0  0  0  0
    9.3482   -5.8302   18.6063 F   0  0  0  0  0  0  0  0  0  0  0  0
    8.6625   -7.2918   17.1952 Cl  0  0  0  0  0  0  0  0  0  0  0  0
   11.8680   -3.0559   16.6830 He  0  0  0  0  0  0  0  0  0  0  0  0
    7.0715   -9.2552   14.8028 He  0  0  0  0  0  0  0  0  0  0  0  0
    6.9846   -7.5625   20.9345 He  0  0  0  0  0  0  0  0  0  0  0  0
   11.6607   -4.0958   15.0855 He  0  0  0  0  0  0  0  0  0  0  0  0
    8.2255   -7.0153   17.3112 He  0  0  0  0  0  0  0  0  0  0  0  0
    3.0055  -10.0497   16.8056 He  0  0  0  0  0  0  0  0  0  0  0  0
    9.1656   -6.0690   16.8212 He  0  0  0  0  0  0  0  0  0  0  0  0
    4.1275   -7.6508   15.7007 He  0  0  0  0  0  0  0  0  0  0  0  0
   10.7398   -6.2406   18.7571 He  0  0  0  0  0  0  0  0  0  0  0  0
   10.4709   -4.3438   17.9809 He  0  0  0  0  0  0  0  0  0  0  0  0
    6.2831   -8.2556   18.1309 He  0  0  0  0  0  0  0  0  0  0  0  0
    3.6493   -9.0815   19.0458 He  0  0  0  0  0  0  0  0  0  0  0  0
    4.3120   -7.2918   18.1252 He  0  0  0  0  0  0  0  0  0  0  0  0
    6.5634   -8.5818   18.1551 He  0  0  0  0  0  0  0  0  0  0  0  0
    6.4500   -8.5766   18.8376 He  0  0  0  0  0  0  0  0  0  0  0  0
    9.9023   -7.5149   16.9680 He  0  0  0  0  0  0  0  0  0  0  0  0
    9.3456   -8.0045   15.6755 He  0  0  0  0  0  0  0  0  0  0  0  0
  1  2  2  0
  1  8  2  0
  1 17  4  0
  2  3  3  0
  2  6  3  0
  2  9  4  0
  2 12  2  0
  2 15  3  0
  2 16  3  0
  3  4  1  0
  3  5  2  0
  3  6  1  0
  3  9  2  0
  3 10  4  0
  3 15  4  0
  3 16  3  0
  4  7  1  0
  4  9  3  0
  4 13  4  0
  4 17  1  0
  5  6  4  0
  5 13  3  0
  5 14  1  0
  6  9  4  0
  6 11  3  0
  6 12  1  0
  6 15  2  0
  7 11  1  0
  7 16  2  0
  7 17  4  0
  8  9  2  0
  8 11  4  0
  8 13  1  0
  8 16  3  0
  8 17  1  0
  9 12  4  0
  9 17  1  0
 10 14  2  0
 10 15  1  0
 10 16  2  0
 10 17  2  0
 11 12  2  0
 11 13  3  0
 11 17  4  0
 12 15  4  0
 12 16  2  0
 13 14  1  0
 13 17  2  0
M  END
$$$$

 Created by Python create_sdf_string function

 34  1  0  0  0  0  0  0  0  0999 V2000
   11.3215   -2.4047   18.1032 C   0  0  0  0  0  0  0  0  0  0  0  0
   11.6163   -3.2503   16.5424 C   0  0  0  0  0  0  0  0  0  0  0  0
    7.3086   -8.6395   15.7903 F   0  0  0  0  0  0  0  0  0  0  0  0
   10.0347   -3.9108   15.9748 F   0  0  0  0  0  0  0  0  0  0  0  0
    7.1927   -7.9242   19.0132 F   0  0  0  0  0  0  0  0  0  0  0  0
   11.4789   -3.6342   15.7121 C   0  0  0  0  0  0  0  0  0  0  0  0
    8.0176   -7.1272   17.2954 C   0  0  0  0  0  0  0  0  0  0  0  0
    9.0883   -7.5733   17.3751 F   0  0  0  0  0  0  0  0  0  0  0  0
   10.5118   -4.4228   20.2840 F   0  0  0  0  0  0  0  0  0  0  0  0
   11.4010   -5.5293   18.9929 C   0  0  0  0  0  0  0  0  0  0  0  0
    2.9239   -9.2137   16.9445 C   0  0  0  0  0  0  0  0  0  0  0  0
   10.9473   -3.8161   18.5810 C   0  0  0  0  0  0  0  0  0  0  0  0
    7.0193   -6.1721   15.5723 F   0  0  0  0  0  0  0  0  0  0  0  0
   12.1251   -2.7546   16.8352 C   0  0  0  0  0  0  0  0  0  0  0  0
    9.1256   -5.7953   16.9484 F   0  0  0  0  0  0  0  0  0  0  0  0
    7.0214   -8.5701   15.1887 F   0  0  0  0  0  0  0  0  0  0  0  0
    5.8936   -7.5483   16.2646 F   0  0  0  0  0  0  0  0  0  0  0  0
    4.1735   -8.0952   16.1549 C   0  0  0  0  0  0  0  0  0  0  0  0
   11.2237   -4.5225   19.6907 C   0  0  0  0  0  0  0  0  0  0  0  0
   10.6813   -6.1347   19.0423 C   0  0  0  0  0  0  0  0  0  0  0  0
   10.7939   -4.0556   17.7956 C   0  0  0  0  0  0  0  0  0  0  0  0
    6.2214   -8.1499   17.8646 F   0  0  0  0  0  0  0  0  0  0  0  0
    7.8559   -5.9678   15.9869 F   0  0  0  0  0  0  0  0  0  0  0  0
    4.1104   -9.3355   17.8215 C   0  0  0  0  0  0  0  0  0  0  0  0
    3.6108   -8.5778   15.9760 C   0  0  0  0  0  0  0  0  0  0  0  0
    4.5674   -8.2036   17.3639 C   0  0  0  0  0  0  0  0  0  0  0  0
    2.7647   -8.6466   16.3213 C   0  0  0  0  0  0  0  0  0  0  0  0
    6.6243   -8.3259   17.7241 F   0  0  0  0  0  0  0  0  0  0  0  0
   12.2589   -5.6987   19.7929 F   0  0  0  0  0  0  0  0  0  0  0  0
    9.5890   -5.8086   18.6222 F   0  0  0  0  0  0  0  0  0  0  0  0
    6.3894   -8.3288   18.2969 F   0  0  0  0  0  0  0  0  0  0  0  0
    9.4696   -7.4325   17.7472 F   0  0  0  0  0  0  0  0  0  0  0  0
    8.3301   -7.4865   17.2779 C   0  0  0  0  0  0  0  0  0  0  0  0
    8.7120   -8.0717   15.9453 F   0  0  0  0  0  0  0  0  0  0  0  0
  3 16  1  0
M  END
$$$$

 Created by Python create_sdf_string function

 34 59  0  0  0  0  0  0  0  0999 V2000
    6.1538   -9.8474   18.7479 F   0  0  0  0  0  0  0  0  0  0  0  0
    9.7706   -3.7238   15.2198 Br  0  0  0  0  0  0  0  0  0  0  0  0
    8.0176   -7.8602   16.6109 S   0  0  0  0  0  0  0  0  0  0  0  0
    9.4978   -9.3560   17.4442 Cl  0  0  0  0  0  0  0  0  0  0  0  0
   10.9120   -5.1945   20.8962 B   0  0  0  0  0  0  0  0  0  0  0  0
   13.6628   -6.1725   18.9908 C   0  0  0  0  0  0  0  0  0  0  0  0
   11.0254   -4.7009   18.5797 C   0  0  0  0  0  0  0  0  0  0  0  0
   11.8205   -2.1190   16.0760 C   0  0  0  0  0  0  0  0  0  0  0  0
    5.6351   -7.7658   15.7968 O   0  0  0  0  0  0  0  0  0  0  0  0
    5.7415   -8.3535   16.6223 P   0  0  0  0  0  0  0  0  0  0  0  0
   12.7321   -6.4515   20.1897 C   0  0  0  0  0  0  0  0  0  0  0  0
    7.2579   -5.5403   14.7737 F   0  0  0  0  0  0  0  0  0  0  0  0
    3.7285  -10.2260   19.2191 S   0  0  0  0  0  0  0  0  0  0  0  0
   12.4545   -4.3665   19.1152 C   0  0  0  0  0  0  0  0  0  0  0  0
    9.8208   -5.5030   17.6245 B   0  0  0  0  0  0  0  0  0  0  0  0
    6.0664   -8.3664   16.8937 F   0  0  0  0  0  0  0  0  0  0  0  0
   10.4073   -7.4063   18.2647 C   0  0  0  0  0  0  0  0  0  0  0  0
    7.9440   -7.0487   17.9369 N   0  0  0  0  0  0  0  0  0  0  0  0
   13.0836   -2.9454   18.9125 He  0  0  0  0  0  0  0  0  0  0  0  0
   11.8982   -2.6476   17.0100 He  0  0  0  0  0  0  0  0  0  0  0  0
    5.3736   -9.5027   16.8862 He  0  0  0  0  0  0  0  0  0  0  0  0
    8.4971   -4.6458   15.7983 He  0  0  0  0  0  0  0  0  0  0  0  0
    2.4503   -9.6227   16.7910 He  0  0  0  0  0  0  0  0  0  0  0  0
    9.1216   -6.1095   15.0812 He  0  0  0  0  0  0  0  0  0  0  0  0
   10.0972   -6.2186   17.5694 He  0  0  0  0  0  0  0  0  0  0  0  0
    4.0788   -6.1877   16.8462 He  0  0  0  0  0  0  0  0  0  0  0  0
   11.2366   -4.5341   18.6118 He  0  0  0  0  0  0  0  0  0  0  0  0
   11.6285   -5.3176   19.5832 He  0  0  0  0  0  0  0  0  0  0  0  0
    7.5935   -7.4234   17.7081 He  0  0  0  0  0  0  0  0  0  0  0  0
    2.9298   -9.7420   18.5536 He  0  0  0  0  0  0  0  0  0  0  0  0
    3.4711   -9.0599   16.9045 He  0  0  0  0  0  0  0  0  0  0  0  0
    1.5353   -8.0400   15.8620 He  0  0  0  0  0  0  0  0  0  0  0  0
    6.4509   -8.4618   17.6519 He  0  0  0  0  0  0  0  0  0  0  0  0
    9.8339   -7.7160   15.2099 He  0  0  0  0  0  0  0  0  0  0  0  0
  1  5  2  0
  1  6  2  0
  1 11  1  0
  1 14  4  0
  1 16  2  0
  1 18  3  0
  2  4  4  0
  2  8  4  0
  2 10  1  0
  2 11  2  0
  2 12  3  0
  3  5  4  0
  3  8  3  0
  3 11  3  0
  3 12  1  0
  3 13  3  0
  3 14  3  0
  3 17  4  0
  4  9  2  0
  4 10  3  0
  4 11  1  0
  4 12  2  0
  4 13  3  0
  4 14  2  0
  5  7  4  0
  5  8  4  0
  5 11  4  0
  5 14  4  0
  5 15  4  0
  5 17  3  0
  6  7  2  0
  6  8  3  0
  6 11  2  0
  6 13  4  0
  6 15  1  0
  7  8  2  0
  8 13  1  0
  8 15  4  0
  8 16  2  0
  8 17  3  0
  8 18  3  0
  9 11  4  0
  9 14  2  0
  9 15  3  0
  9 17  2  0
 10 11  3  0
 10 12  2  0
 10 18  2  0
 11 16  3  0
 11 18  4  0
 12 15  2  0
 12 16  2  0
 12 17  3  0
 13 15  3  0
 13 16  4  0
 13 17  2  0
 13 18  2  0
 15 17  2  0
 16 18  1  0
M  END
$$$$

 Created by Python create_sdf_string function

 34  2  0  0  0  0  0  0  0  0999 V2000
   11.9873   -3.0462   18.7214 O   0  0  0  0  0  0  0  0  0  0  0  0
   11.4857   -3.1939   16.9095 C   0  0  0  0  0  0  0  0  0  0  0  0
    4.9236   -9.0918   17.0368 C   0  0  0  0  0  0  0  0  0  0  0  0
    8.8034   -4.8391   16.0953 C   0  0  0  0  0  0  0  0  0  0  0  0
    5.7235   -9.2164   18.3601 F   0  0  0  0  0  0  0  0  0  0  0  0
   10.1235   -3.8101   15.9412 C   0  0  0  0  0  0  0  0  0  0  0  0
    7.8680   -7.8172   16.4148 C   0  0  0  0  0  0  0  0  0  0  0  0
    9.0583   -8.4407   17.5208 F   0  0  0  0  0  0  0  0  0  0  0  0
   11.2080   -4.8715   20.6654 C   0  0  0  0  0  0  0  0  0  0  0  0
   12.9896   -5.9485   19.1963 C   0  0  0  0  0  0  0  0  0  0  0  0
    2.5072   -9.6449   17.1151 C   0  0  0  0  0  0  0  0  0  0  0  0
   10.9244   -4.6763   18.5024 C   0  0  0  0  0  0  0  0  0  0  0  0
    8.6222   -6.1696   15.9485 C   0  0  0  0  0  0  0  0  0  0  0  0
   11.4926   -3.2198   16.4171 C   0  0  0  0  0  0  0  0  0  0  0  0
    9.8441   -6.0231   17.9552 C   0  0  0  0  0  0  0  0  0  0  0  0
    5.4930   -7.8262   16.0192 F   0  0  0  0  0  0  0  0  0  0  0  0
    5.3048   -8.4833   16.6636 C   0  0  0  0  0  0  0  0  0  0  0  0
    3.8081   -7.5823   15.9983 C   0  0  0  0  0  0  0  0  0  0  0  0
   11.1645   -4.2641   18.5414 C   0  0  0  0  0  0  0  0  0  0  0  0
   12.5336   -5.6847   20.0446 C   0  0  0  0  0  0  0  0  0  0  0  0
   11.4928   -5.2817   19.7477 C   0  0  0  0  0  0  0  0  0  0  0  0
    7.5322   -7.4306   17.6668 C   0  0  0  0  0  0  0  0  0  0  0  0
    7.2112   -6.0295   15.4515 F   0  0  0  0  0  0  0  0  0  0  0  0
    2.9527  -10.1485   17.7500 C   0  0  0  0  0  0  0  0  0  0  0  0
    3.4053   -8.9404   16.6774 C   0  0  0  0  0  0  0  0  0  0  0  0
    3.8302  -10.4131   18.1529 C   0  0  0  0  0  0  0  0  0  0  0  0
    2.2858   -8.5957   16.1148 C   0  0  0  0  0  0  0  0  0  0  0  0
    6.6063   -8.3402   17.5579 F   0  0  0  0  0  0  0  0  0  0  0  0
   11.9428   -4.4005   19.2970 C   0  0  0  0  0  0  0  0  0  0  0  0
    9.8283   -5.2928   17.4718 C   0  0  0  0  0  0  0  0  0  0  0  0
    6.1937   -8.3289   16.9303 F   0  0  0  0  0  0  0  0  0  0  0  0
   10.0209   -6.9473   18.5598 C   0  0  0  0  0  0  0  0  0  0  0  0
    8.0705   -7.0250   17.8646 F   0  0  0  0  0  0  0  0  0  0  0  0
    8.7552   -7.7800   15.5763 F   0  0  0  0  0  0  0  0  0  0  0  0
  2 14  4  0
 11 24  4  0
M  END
$$$$

 Created by Python create_sdf_string function

 34 41  0  0  0  0  0  0  0  0999 V2000
    8.4177   -6.1510   15.2782 Cl  0  0  0  0  0  0  0  0  0  0  0  0
    6.1918   -9.1970   18.4537 F   0  0  0  0  0  0  0  0  0  0  0  0
    8.5260   -9.8608   18.1545 C   0  0  0  0  0  0  0  0  0  0  0  0
   14.1811   -3.9551   18.9479 N   0  0  0  0  0  0  0  0  0  0  0  0
    9.1542   -6.3450   16.0164 O   0  0  0  0  0  0  0  0  0  0  0  0
   12.2928   -2.5579   15.9806 F   0  0  0  0  0  0  0  0  0  0  0  0
    5.4745   -9.5941   14.6215 O   0  0  0  0  0  0  0  0  0  0  0  0
    3.9800   -8.2301   16.5415 S   0  0  0  0  0  0  0  0  0  0  0  0
    2.7865   -7.0647   16.3474 C   0  0  0  0  0  0  0  0  0  0  0  0
    6.5092   -6.5990   14.5001 N   0  0  0  0  0  0  0  0  0  0  0  0
    2.6729   -8.0276   18.3552 S   0  0  0  0  0  0  0  0  0  0  0  0
    4.2551  -10.4867   17.1267 C   0  0  0  0  0  0  0  0  0  0  0  0
    2.8326   -7.9644   13.0926 F   0  0  0  0  0  0  0  0  0  0  0  0
    6.7815   -9.1422   17.4028 N   0  0  0  0  0  0  0  0  0  0  0  0
    7.8988   -7.2208   18.1059 S   0  0  0  0  0  0  0  0  0  0  0  0
    9.8987   -3.8598   20.4336 He  0  0  0  0  0  0  0  0  0  0  0  0
   10.8363   -0.6741   17.8264 He  0  0  0  0  0  0  0  0  0  0  0  0
    5.7999  -10.8778   16.5069 He  0  0  0  0  0  0  0  0  0  0  0  0
    8.5238   -3.6209   16.1628 He  0  0  0  0  0  0  0  0  0  0  0  0
    6.9816   -8.4123   15.2686 He  0  0  0  0  0  0  0  0  0  0  0  0
   10.7514   -5.5051   22.0189 He  0  0  0  0  0  0  0  0  0  0  0  0
    3.0647  -10.0310   16.1118 He  0  0  0  0  0  0  0  0  0  0  0  0
   10.3645   -4.0047   19.8524 He  0  0  0  0  0  0  0  0  0  0  0  0
    9.2982   -6.8817   17.1949 He  0  0  0  0  0  0  0  0  0  0  0  0
   10.9296   -5.0171   18.6278 He  0  0  0  0  0  0  0  0  0  0  0  0
   12.5182   -5.2830   19.1613 He  0  0  0  0  0  0  0  0  0  0  0  0
   11.3628   -7.8897   18.4981 He  0  0  0  0  0  0  0  0  0  0  0  0
    7.9717   -7.9524   17.8903 He  0  0  0  0  0  0  0  0  0  0  0  0
    1.3649  -10.8489   17.2400 He  0  0  0  0  0  0  0  0  0  0  0  0
   12.3112   -5.1435   19.4377 He  0  0  0  0  0  0  0  0  0  0  0  0
    9.6891   -2.8918   16.3711 He  0  0  0  0  0  0  0  0  0  0  0  0
    6.1530   -8.8676   16.7089 He  0  0  0  0  0  0  0  0  0  0  0  0
   10.4946   -6.2547   18.8636 He  0  0  0  0  0  0  0  0  0  0  0  0
    9.4907   -7.5744   17.0392 He  0  0  0  0  0  0  0  0  0  0  0  0
  1  4  2  0
  1  6  3  0
  1 11  2  0
  1 12  2  0
  1 13  4  0
  2  4  4  0
  2  5  2  0
  2 10  4  0
  2 11  3  0
  3  5  3  0
  3 10  2  0
  3 14  1  0
  4  8  4  0
  4  9  3  0
  4 13  3  0
  4 15  4  0
  5  7  4  0
  5  9  1  0
  5 11  4  0
  5 12  1  0
  5 15  2  0
  6  8  2  0
  6  9  3  0
  6 15  4  0
  7  8  4  0
  7 11  4  0
  7 13  2  0
  7 14  4  0
  8 10  2  0
  8 13  2  0
  8 14  2  0
  8 15  4  0
  9 10  1  0
  9 11  3  0
  9 13  4  0
  9 14  1  0
 10 12  2  0
 10 14  3  0
 11 12  2  0
 11 13  1  0
 12 13  1  0
M  END
$$$$

 Created by Python create_sdf_string function

 34  1  0  0  0  0  0  0  0  0999 V2000
   10.5153   -4.0376   20.4572 C   0  0  0  0  0  0  0  0  0  0  0  0
   11.3869   -2.3678   18.0232 O   0  0  0  0  0  0  0  0  0  0  0  0
    5.6334  -10.2054   16.7019 C   0  0  0  0  0  0  0  0  0  0  0  0
    8.0961   -6.1672   15.8401 C   0  0  0  0  0  0  0  0  0  0  0  0
    6.0081   -8.7740   18.1504 F   0  0  0  0  0  0  0  0  0  0  0  0
    9.4116   -4.1446   16.1392 C   0  0  0  0  0  0  0  0  0  0  0  0
    7.0147   -8.4341   15.7368 C   0  0  0  0  0  0  0  0  0  0  0  0
    8.2653   -8.7319   17.5964 F   0  0  0  0  0  0  0  0  0  0  0  0
   11.2139   -4.8275   21.3175 O   0  0  0  0  0  0  0  0  0  0  0  0
   12.4337   -4.3251   18.5400 C   0  0  0  0  0  0  0  0  0  0  0  0
    2.7863   -9.3463   16.4597 C   0  0  0  0  0  0  0  0  0  0  0  0
   10.8302   -4.1928   19.7728 C   0  0  0  0  0  0  0  0  0  0  0  0
    8.8802   -6.0196   16.4472 C   0  0  0  0  0  0  0  0  0  0  0  0
   11.6305   -3.3861   16.6530 C   0  0  0  0  0  0  0  0  0  0  0  0
    9.1617   -6.4147   17.2937 C   0  0  0  0  0  0  0  0  0  0  0  0
    5.2264   -9.0429   15.3381 C   0  0  0  0  0  0  0  0  0  0  0  0
    3.8423   -8.6047   16.4106 C   0  0  0  0  0  0  0  0  0  0  0  0
    3.1956   -7.9391   16.2113 C   0  0  0  0  0  0  0  0  0  0  0  0
   11.0797   -4.7461   18.4394 C   0  0  0  0  0  0  0  0  0  0  0  0
   11.9756   -5.2563   19.1181 C   0  0  0  0  0  0  0  0  0  0  0  0
   10.6422   -7.0877   18.7075 C   0  0  0  0  0  0  0  0  0  0  0  0
    7.9434   -7.8002   17.7472 C   0  0  0  0  0  0  0  0  0  0  0  0
    6.4305   -6.9247   15.3248 F   0  0  0  0  0  0  0  0  0  0  0  0
    3.1037   -8.9564   17.1252 C   0  0  0  0  0  0  0  0  0  0  0  0
    1.8309   -9.9175   17.2527 C   0  0  0  0  0  0  0  0  0  0  0  0
    3.9477   -9.8647   17.3060 C   0  0  0  0  0  0  0  0  0  0  0  0
    3.1328   -8.2760   15.0708 C   0  0  0  0  0  0  0  0  0  0  0  0
    6.7007   -8.7102   17.2034 C   0  0  0  0  0  0  0  0  0  0  0  0
   11.8205   -5.1240   19.3972 C   0  0  0  0  0  0  0  0  0  0  0  0
   10.3846   -3.7735   16.5226 C   0  0  0  0  0  0  0  0  0  0  0  0
    6.0555   -8.6155   16.5635 C   0  0  0  0  0  0  0  0  0  0  0  0
   10.4515   -5.9121   18.7916 C   0  0  0  0  0  0  0  0  0  0  0  0
    7.9280   -7.0273   18.0012 F   0  0  0  0  0  0  0  0  0  0  0  0
    9.0625   -7.3063   17.3551 C   0  0  0  0  0  0  0  0  0  0  0  0
  6 30  1  0
M  END
$$$$

 Created by Python create_sdf_string function

 34 57  0  0  0  0  0  0  0  0999 V2000
   10.5053   -4.6479   20.8425 C   0  0  0  0  0  0  0  0  0  0  0  0
   11.7230   -3.4620   18.1183 O   0  0  0  0  0  0  0  0  0  0  0  0
    6.5922   -9.4893   15.4589 Cl  0  0  0  0  0  0  0  0  0  0  0  0
    8.5397   -5.4266   17.8822 F   0  0  0  0  0  0  0  0  0  0  0  0
    9.8574   -5.3117   15.8482 F   0  0  0  0  0  0  0  0  0  0  0  0
    9.1712   -8.2365   18.2398 N   0  0  0  0  0  0  0  0  0  0  0  0
   11.5414   -3.3954   18.9232 N   0  0  0  0  0  0  0  0  0  0  0  0
    6.6117   -9.2598   14.8706 O   0  0  0  0  0  0  0  0  0  0  0  0
   11.6155   -5.9918   18.7739 O   0  0  0  0  0  0  0  0  0  0  0  0
   11.4750   -5.1671   17.0423 C   0  0  0  0  0  0  0  0  0  0  0  0
    2.6954   -8.3865   18.2694 O   0  0  0  0  0  0  0  0  0  0  0  0
    1.5692  -10.3981   17.0309 Cl  0  0  0  0  0  0  0  0  0  0  0  0
    8.5907  -10.6772   17.5412 C   0  0  0  0  0  0  0  0  0  0  0  0
   11.0284   -2.8561   18.1645 S   0  0  0  0  0  0  0  0  0  0  0  0
    6.6856   -6.9504   16.2466 F   0  0  0  0  0  0  0  0  0  0  0  0
   10.9488   -6.9392   19.9916 Cl  0  0  0  0  0  0  0  0  0  0  0  0
    9.4297   -7.1169   16.4260 C   0  0  0  0  0  0  0  0  0  0  0  0
    6.4169   -6.7728   17.4385 He  0  0  0  0  0  0  0  0  0  0  0  0
    7.0365   -8.0296   16.1420 He  0  0  0  0  0  0  0  0  0  0  0  0
   11.0232   -4.9474   20.7232 He  0  0  0  0  0  0  0  0  0  0  0  0
   11.1150   -5.7711   19.4890 He  0  0  0  0  0  0  0  0  0  0  0  0
    2.0691   -9.4058   16.0907 He  0  0  0  0  0  0  0  0  0  0  0  0
    9.8604   -3.1034   15.0697 He  0  0  0  0  0  0  0  0  0  0  0  0
   11.3543   -4.2492   17.2724 He  0  0  0  0  0  0  0  0  0  0  0  0
   10.0623   -7.2661   16.9355 He  0  0  0  0  0  0  0  0  0  0  0  0
    2.1751   -9.4689   17.2232 He  0  0  0  0  0  0  0  0  0  0  0  0
    4.2360   -9.1781   15.0069 He  0  0  0  0  0  0  0  0  0  0  0  0
   10.8955   -7.1374   19.9507 He  0  0  0  0  0  0  0  0  0  0  0  0
    8.5861   -7.1126   18.2563 He  0  0  0  0  0  0  0  0  0  0  0  0
    6.7064   -6.6512   14.4181 He  0  0  0  0  0  0  0  0  0  0  0  0
    3.0183  -10.5274   18.7782 He  0  0  0  0  0  0  0  0  0  0  0  0
    3.8365   -7.7803   13.7296 He  0  0  0  0  0  0  0  0  0  0  0  0
   11.2922   -3.3257   15.1497 He  0  0  0  0  0  0  0  0  0  0  0  0
    6.9168   -8.3988   17.5678 He  0  0  0  0  0  0  0  0  0  0  0  0
  1  3  2  0
  1  5  2  0
  1  6  1  0
  1  9  2  0
  1 11  2  0
  1 12  2  0
  1 13  4  0
  1 16  1  0
  2  3  3  0
  2 10  3  0
  2 15  4  0
  3  5  1  0
  3  6  1  0
  3 11  2  0
  3 14  1  0
  3 15  3  0
  4  8  2  0
  4  9  1  0
  4 10  2  0
  4 11  2  0
  4 13  1  0
  4 14  4  0
  4 15  4  0
  5  9  4  0
  5 10  3  0
  5 11  1  0
  5 12  3  0
  6  8  4  0
  6  9  2  0
  6 13  2  0
  6 14  4  0
  6 16  1  0
  7  8  2  0
  7 10  4  0
  7 13  3  0
  7 16  4  0
  8  9  2  0
  8 10  4  0
  8 16  3  0
  9 11  4  0
  9 14  1  0
  9 16  4  0
 10 11  4  0
 10 15  2  0
 10 16  2  0
 10 17  4  0
 11 16  4  0
 11 17  3  0
 12 13  2  0
 12 16  2  0
 12 17  4  0
 13 14  4  0
 14 15  3  0
 14 16  3  0
 14 17  1  0
 15 16  4  0
 15 17  1  0
M  END
$$$$

 Created by Python create_sdf_string function

 34  2  0  0  0  0  0  0  0  0999 V2000
   10.8757   -4.3625   20.8868 C   0  0  0  0  0  0  0  0  0  0  0  0
   11.3535   -3.3016   17.9439 C   0  0  0  0  0  0  0  0  0  0  0  0
    6.1811   -8.9268   15.8291 C   0  0  0  0  0  0  0  0  0  0  0  0
    8.4982   -5.8618   17.7018 F   0  0  0  0  0  0  0  0  0  0  0  0
    6.4417   -7.1776   17.4599 F   0  0  0  0  0  0  0  0  0  0  0  0
    9.6047   -4.9662   16.1883 F   0  0  0  0  0  0  0  0  0  0  0  0
    7.0898   -7.9396   16.2676 C   0  0  0  0  0  0  0  0  0  0  0  0
    8.8556   -7.9356   18.0096 F   0  0  0  0  0  0  0  0  0  0  0  0
   11.0640   -4.5760   20.8670 C   0  0  0  0  0  0  0  0  0  0  0  0
   10.8704   -5.2588   19.5031 C   0  0  0  0  0  0  0  0  0  0  0  0
    2.5286   -9.2054   16.2472 C   0  0  0  0  0  0  0  0  0  0  0  0
   11.1715   -3.5323   19.2994 C   0  0  0  0  0  0  0  0  0  0  0  0
   10.0756   -3.6513   15.7026 F   0  0  0  0  0  0  0  0  0  0  0  0
   11.0661   -4.0206   17.3260 C   0  0  0  0  0  0  0  0  0  0  0  0
    9.3860   -7.1631   17.3053 F   0  0  0  0  0  0  0  0  0  0  0  0
    6.3135   -8.8630   15.5372 C   0  0  0  0  0  0  0  0  0  0  0  0
    2.4776   -9.6397   17.1268 C   0  0  0  0  0  0  0  0  0  0  0  0
    4.0321   -8.8533   15.7620 C   0  0  0  0  0  0  0  0  0  0  0  0
   11.1715   -5.7525   18.8144 C   0  0  0  0  0  0  0  0  0  0  0  0
   10.9739   -4.4783   17.2491 C   0  0  0  0  0  0  0  0  0  0  0  0
   10.4469   -6.6500   19.5922 F   0  0  0  0  0  0  0  0  0  0  0  0
    8.5066   -7.1582   17.9423 C   0  0  0  0  0  0  0  0  0  0  0  0
    6.6016   -6.8513   15.3032 F   0  0  0  0  0  0  0  0  0  0  0  0
    3.4949   -9.3504   17.3175 C   0  0  0  0  0  0  0  0  0  0  0  0
    1.8702   -9.8255   17.1713 C   0  0  0  0  0  0  0  0  0  0  0  0
    3.1707  -10.1974   17.8960 C   0  0  0  0  0  0  0  0  0  0  0  0
    4.1481   -8.3389   15.2021 C   0  0  0  0  0  0  0  0  0  0  0  0
    8.1402   -9.0477   17.2029 F   0  0  0  0  0  0  0  0  0  0  0  0
   11.1638   -3.1202   18.1387 C   0  0  0  0  0  0  0  0  0  0  0  0
   11.3292   -3.5908   15.7153 C   0  0  0  0  0  0  0  0  0  0  0  0
    6.8086   -6.9090   16.3256 F   0  0  0  0  0  0  0  0  0  0  0  0
   10.4939   -6.3017   19.7231 C   0  0  0  0  0  0  0  0  0  0  0  0
    8.5345   -7.1489   16.4993 C   0  0  0  0  0  0  0  0  0  0  0  0
    6.6422   -8.3392   17.4562 F   0  0  0  0  0  0  0  0  0  0  0  0
  1  9  4  0
 18 27  1  0
M  END
$$$$

 Created by Python create_sdf_string function

 34 79  0  0  0  0  0  0  0  0999 V2000
   11.1795   -2.2472   16.6389 N   0  0  0  0  0  0  0  0  0  0  0  0
    6.2099   -8.4084   15.1226 C   0  0  0  0  0  0  0  0  0  0  0  0
    7.0632   -7.2508   17.9292 N   0  0  0  0  0  0  0  0  0  0  0  0
    6.2697   -6.8229   18.1404 N   0  0  0  0  0  0  0  0  0  0  0  0
    6.7112   -5.8149   17.9267 O   0  0  0  0  0  0  0  0  0  0  0  0
    7.6520   -8.4626   18.7740 F   0  0  0  0  0  0  0  0  0  0  0  0
    3.8678   -8.0831   15.8753 N   0  0  0  0  0  0  0  0  0  0  0  0
   11.1797   -3.9637   18.5818 B   0  0  0  0  0  0  0  0  0  0  0  0
    9.7192   -4.7555   13.1209 Cl  0  0  0  0  0  0  0  0  0  0  0  0
   11.7355   -3.8484   17.5472 N   0  0  0  0  0  0  0  0  0  0  0  0
    7.6844   -8.3733   15.3499 N   0  0  0  0  0  0  0  0  0  0  0  0
    1.2380   -8.4322   16.9826 C   0  0  0  0  0  0  0  0  0  0  0  0
    8.4116   -8.3942   20.6017 C   0  0  0  0  0  0  0  0  0  0  0  0
    3.0682  -10.6565   17.5651 N   0  0  0  0  0  0  0  0  0  0  0  0
    1.8587   -9.2891   16.6345 F   0  0  0  0  0  0  0  0  0  0  0  0
    4.2193  -10.5863   19.8039 N   0  0  0  0  0  0  0  0  0  0  0  0
    9.5965   -2.9336   18.3312 P   0  0  0  0  0  0  0  0  0  0  0  0
    8.0423   -7.7267   16.6341 S   0  0  0  0  0  0  0  0  0  0  0  0
   10.5312   -5.8565   20.1369 C   0  0  0  0  0  0  0  0  0  0  0  0
   10.5925   -6.4172   15.8449 C   0  0  0  0  0  0  0  0  0  0  0  0
    6.5423   -7.6441   17.1319 F   0  0  0  0  0  0  0  0  0  0  0  0
   11.5559   -5.5970   20.9311 He  0  0  0  0  0  0  0  0  0  0  0  0
   10.3382   -5.5975   15.4797 He  0  0  0  0  0  0  0  0  0  0  0  0
   10.5541   -5.2070   22.3694 He  0  0  0  0  0  0  0  0  0  0  0  0
   10.9740   -4.8924   20.0808 He  0  0  0  0  0  0  0  0  0  0  0  0
    9.3593   -6.8676   17.6723 He  0  0  0  0  0  0  0  0  0  0  0  0
    4.8332   -9.0779   16.7538 He  0  0  0  0  0  0  0  0  0  0  0  0
   12.3279   -7.5814   18.4507 He  0  0  0  0  0  0  0  0  0  0  0  0
   11.7593   -2.4899   16.0716 He  0  0  0  0  0  0  0  0  0  0  0  0
    8.2760   -8.0799   18.7161 He  0  0  0  0  0  0  0  0  0  0  0  0
    6.2785   -7.7706   15.8147 He  0  0  0  0  0  0  0  0  0  0  0  0
    3.1484   -9.8930   14.2780 He  0  0  0  0  0  0  0  0  0  0  0  0
    8.6395   -9.3331   16.8289 He  0  0  0  0  0  0  0  0  0  0  0  0
   11.4484   -5.7384   15.8789 He  0  0  0  0  0  0  0  0  0  0  0  0
  1  2  3  0
  1  8  4  0
  1  9  2  0
  1 10  3  0
  1 11  1  0
  1 17  2  0
  2  6  3  0
  2  7  2  0
  2 10  2  0
  3  4  3  0
  3  9  1  0
  3 14  4  0
  3 15  4  0
  3 16  2  0
  3 17  2  0
  3 21  2  0
  4  8  3  0
  4 11  4  0
  4 12  4  0
  4 13  4  0
  4 15  1  0
  4 16  2  0
  4 18  2  0
  5  7  1  0
  5  9  4  0
  5 10  2  0
  5 12  1  0
  5 14  1  0
  5 16  3  0
  5 17  3  0
  5 21  4  0
  6  8  2  0
  6 10  4  0
  6 15  1  0
  6 17  1  0
  6 18  3  0
  7 11  4  0
  7 16  4  0
  7 18  1  0
  7 19  1  0
  7 20  3  0
  7 21  3  0
  8  9  3  0
  8 11  1  0
  8 14  4  0
  8 15  3  0
  8 16  3  0
  9 11  1  0
  9 17  1  0
  9 19  4  0
  9 20  2  0
 10 13  1  0
 10 14  3  0
 10 19  1  0
 10 20  1  0
 10 21  1  0
 11 12  4  0
 11 19  1  0
 11 20  3  0
 12 13  1  0
 12 19  1  0
 12 20  2  0
 12 21  4  0
 13 18  4  0
 13 19  3  0
 14 15  3  0
 14 16  1  0
 14 17  2  0
 14 18  4  0
 14 21  3  0
 15 16  3  0
 15 17  4  0
 16 17  1  0
 16 18  2  0
 16 19  3  0
 16 21  4  0
 18 19  3  0
 18 20  2  0
 19 20  1  0
M  END
$$$$

 Created by Python create_sdf_string function

 34  2  0  0  0  0  0  0  0  0999 V2000
   11.1723   -5.0849   20.7630 C   0  0  0  0  0  0  0  0  0  0  0  0
   11.5031   -3.2218   16.7977 C   0  0  0  0  0  0  0  0  0  0  0  0
    5.9273   -8.3569   15.4648 F   0  0  0  0  0  0  0  0  0  0  0  0
    6.9321   -7.4192   17.7697 F   0  0  0  0  0  0  0  0  0  0  0  0
    6.3619   -7.4039   17.9619 F   0  0  0  0  0  0  0  0  0  0  0  0
    9.8733   -4.9898   16.0502 C   0  0  0  0  0  0  0  0  0  0  0  0
    7.2622   -6.4600   17.6466 F   0  0  0  0  0  0  0  0  0  0  0  0
    7.5003   -8.0888   18.3797 F   0  0  0  0  0  0  0  0  0  0  0  0
   10.9737   -4.7096   21.5795 C   0  0  0  0  0  0  0  0  0  0  0  0
   10.9279   -4.7126   20.2690 C   0  0  0  0  0  0  0  0  0  0  0  0
    3.9380   -8.7123   16.1777 C   0  0  0  0  0  0  0  0  0  0  0  0
   11.0620   -4.2401   18.8157 C   0  0  0  0  0  0  0  0  0  0  0  0
    9.9853   -3.9913   15.1559 C   0  0  0  0  0  0  0  0  0  0  0  0
   11.2769   -3.9608   17.5401 C   0  0  0  0  0  0  0  0  0  0  0  0
    9.4045   -6.8470   17.9884 C   0  0  0  0  0  0  0  0  0  0  0  0
    7.7364   -8.2056   15.5192 F   0  0  0  0  0  0  0  0  0  0  0  0
    2.1280   -9.3027   16.5992 C   0  0  0  0  0  0  0  0  0  0  0  0
    4.4288   -8.7839   16.8648 C   0  0  0  0  0  0  0  0  0  0  0  0
   10.9838   -6.7498   18.7128 F   0  0  0  0  0  0  0  0  0  0  0  0
   11.8390   -3.4071   15.9756 C   0  0  0  0  0  0  0  0  0  0  0  0
    8.9147   -8.0232   19.1217 F   0  0  0  0  0  0  0  0  0  0  0  0
    8.6601   -7.7977   18.3031 C   0  0  0  0  0  0  0  0  0  0  0  0
    6.2137   -7.9147   15.8434 C   0  0  0  0  0  0  0  0  0  0  0  0
    2.9966   -9.9989   17.6472 C   0  0  0  0  0  0  0  0  0  0  0  0
    2.1939   -9.3986   16.7205 C   0  0  0  0  0  0  0  0  0  0  0  0
    4.3536   -9.8909   18.2308 N   0  0  0  0  0  0  0  0  0  0  0  0
    3.0571   -8.8948   15.3238 C   0  0  0  0  0  0  0  0  0  0  0  0
    8.7814   -8.4863   16.6201 F   0  0  0  0  0  0  0  0  0  0  0  0
   10.5521   -3.6901   18.5114 C   0  0  0  0  0  0  0  0  0  0  0  0
   10.5867   -4.7805   16.3704 C   0  0  0  0  0  0  0  0  0  0  0  0
    8.1675   -7.5093   16.2713 F   0  0  0  0  0  0  0  0  0  0  0  0
   10.5975   -5.5689   19.7359 C   0  0  0  0  0  0  0  0  0  0  0  0
    9.7711   -5.8685   16.1622 C   0  0  0  0  0  0  0  0  0  0  0  0
    6.4288   -7.8070   17.0264 C   0  0  0  0  0  0  0  0  0  0  0  0
 11 18  4  0
 17 25  4  0
M  END
$$$$

 Created by Python create_sdf_string function

 34 66  0  0  0  0  0  0  0  0999 V2000
    7.9742   -8.0473   16.8178 Cl  0  0  0  0  0  0  0  0  0  0  0  0
    8.1023   -6.3558   17.3852 I   0  0  0  0  0  0  0  0  0  0  0  0
    5.9540   -6.6226   17.9449 B   0  0  0  0  0  0  0  0  0  0  0  0
   10.8329   -5.3687   15.4209 S   0  0  0  0  0  0  0  0  0  0  0  0
    7.2402   -7.3690   16.2202 F   0  0  0  0  0  0  0  0  0  0  0  0
   11.7067   -4.3370   20.9297 N   0  0  0  0  0  0  0  0  0  0  0  0
    3.1312   -8.0953   15.9513 N   0  0  0  0  0  0  0  0  0  0  0  0
   10.9504   -4.5911   14.1258 C   0  0  0  0  0  0  0  0  0  0  0  0
   10.8649   -4.4975   19.2696 N   0  0  0  0  0  0  0  0  0  0  0  0
    6.9956   -8.7723   17.3789 C   0  0  0  0  0  0  0  0  0  0  0  0
    7.4964   -8.4502   16.5870 N   0  0  0  0  0  0  0  0  0  0  0  0
    8.0218   -8.0189   19.8655 F   0  0  0  0  0  0  0  0  0  0  0  0
    5.1210   -7.5837   16.4769 Cl  0  0  0  0  0  0  0  0  0  0  0  0
    3.1438   -9.6590   14.8208 N   0  0  0  0  0  0  0  0  0  0  0  0
    4.7148   -8.4938   18.6765 N   0  0  0  0  0  0  0  0  0  0  0  0
    2.5317   -8.7698   16.5476 C   0  0  0  0  0  0  0  0  0  0  0  0
   10.4539   -6.3957   18.3344 C   0  0  0  0  0  0  0  0  0  0  0  0
    6.9842   -8.6203   18.3130 C   0  0  0  0  0  0  0  0  0  0  0  0
   10.6929   -5.7347   21.3272 He  0  0  0  0  0  0  0  0  0  0  0  0
   12.3633   -3.7132   15.7914 He  0  0  0  0  0  0  0  0  0  0  0  0
    5.7256   -6.0978   19.0384 He  0  0  0  0  0  0  0  0  0  0  0  0
   12.9029   -5.9286   20.7341 He  0  0  0  0  0  0  0  0  0  0  0  0
   10.3168   -4.6784   19.7200 He  0  0  0  0  0  0  0  0  0  0  0  0
    2.2515   -8.7618   16.1035 He  0  0  0  0  0  0  0  0  0  0  0  0
    4.7397   -8.3591   15.9722 He  0  0  0  0  0  0  0  0  0  0  0  0
   11.8910   -6.0190   18.4679 He  0  0  0  0  0  0  0  0  0  0  0  0
   11.9163   -2.4782   17.1583 He  0  0  0  0  0  0  0  0  0  0  0  0
    8.6928   -7.7691   18.5014 He  0  0  0  0  0  0  0  0  0  0  0  0
    0.7469  -12.1358   17.7683 He  0  0  0  0  0  0  0  0  0  0  0  0
    9.2522   -7.0729   16.7468 He  0  0  0  0  0  0  0  0  0  0  0  0
   10.1751   -3.8538   17.4935 He  0  0  0  0  0  0  0  0  0  0  0  0
    8.5643   -4.6737   17.0898 He  0  0  0  0  0  0  0  0  0  0  0  0
    8.4507   -6.8787   14.6789 He  0  0  0  0  0  0  0  0  0  0  0  0
    9.4597   -4.9769   16.2297 He  0  0  0  0  0  0  0  0  0  0  0  0
  1  6  2  0
  1  8  2  0
  1  9  4  0
  1 10  1  0
  1 11  3  0
  1 14  1  0
  1 16  3  0
  2  5  3  0
  2  6  1  0
  2  8  3  0
  2 12  1  0
  2 13  3  0
  2 15  1  0
  3  4  1  0
  3  6  2  0
  3  7  1  0
  3 11  4  0
  3 12  4  0
  3 14  3  0
  3 15  4  0
  3 16  1  0
  3 17  2  0
  4  6  1  0
  4  8  1  0
  4  9  3  0
  4 11  1  0
  4 12  4  0
  4 13  1  0
  4 16  4  0
  4 18  3  0
  5  8  1  0
  5 11  4  0
  5 12  1  0
  5 14  3  0
  5 15  1  0
  5 16  3  0
  5 18  2  0
  6  7  2  0
  6  8  3  0
  6 10  2  0
  6 14  1  0
  6 16  4  0
  6 17  4  0
  7 11  3  0
  7 13  1  0
  7 14  2  0
  7 18  2  0
  8  9  2  0
  8 15  1  0
  8 16  1  0
  9 11  3  0
  9 12  2  0
  9 16  1  0
  9 17  2  0
  9 18  2  0
 10 11  2  0
 10 12  4  0
 11 13  4  0
 11 14  1  0
 11 15  4  0
 11 18  3  0
 12 13  3  0
 12 16  1  0
 14 16  2  0
 15 17  2  0
 17 18  3  0
M  END
$$$$

 Created by Python create_sdf_string function

 34  5  0  0  0  0  0  0  0  0999 V2000
   11.2881   -4.9675   20.9506 C   0  0  0  0  0  0  0  0  0  0  0  0
   11.9103   -3.4730   15.8465 C   0  0  0  0  0  0  0  0  0  0  0  0
    8.1034   -8.2203   16.5891 F   0  0  0  0  0  0  0  0  0  0  0  0
    8.2928   -6.5730   17.1789 C   0  0  0  0  0  0  0  0  0  0  0  0
    6.0791   -7.3009   17.6939 F   0  0  0  0  0  0  0  0  0  0  0  0
   10.7731   -4.1646   15.7416 C   0  0  0  0  0  0  0  0  0  0  0  0
    6.9467   -7.3838   16.1493 F   0  0  0  0  0  0  0  0  0  0  0  0
    6.2556   -7.0697   18.5726 F   0  0  0  0  0  0  0  0  0  0  0  0
   11.3797   -4.4019   21.0558 C   0  0  0  0  0  0  0  0  0  0  0  0
   12.2948   -5.4573   20.2748 C   0  0  0  0  0  0  0  0  0  0  0  0
    3.2443   -8.6760   16.2462 C   0  0  0  0  0  0  0  0  0  0  0  0
   10.6560   -4.7410   19.7014 C   0  0  0  0  0  0  0  0  0  0  0  0
   11.3035   -3.7835   15.0350 C   0  0  0  0  0  0  0  0  0  0  0  0
   10.8998   -4.4921   19.2573 C   0  0  0  0  0  0  0  0  0  0  0  0
    7.0474   -8.6217   17.0052 F   0  0  0  0  0  0  0  0  0  0  0  0
    7.3178   -8.4127   16.3042 F   0  0  0  0  0  0  0  0  0  0  0  0
    2.3070   -9.1806   16.3836 C   0  0  0  0  0  0  0  0  0  0  0  0
    4.3229   -8.5264   16.0150 C   0  0  0  0  0  0  0  0  0  0  0  0
   11.8385   -5.7397   19.0227 C   0  0  0  0  0  0  0  0  0  0  0  0
   11.6403   -2.9776   16.9556 C   0  0  0  0  0  0  0  0  0  0  0  0
    8.5058   -8.0378   18.6530 F   0  0  0  0  0  0  0  0  0  0  0  0
    8.8852   -7.7039   18.1026 F   0  0  0  0  0  0  0  0  0  0  0  0
    4.7471   -8.1055   16.4280 C   0  0  0  0  0  0  0  0  0  0  0  0
    1.4243  -10.1678   17.4440 C   0  0  0  0  0  0  0  0  0  0  0  0
    2.5057   -9.1378   15.6907 C   0  0  0  0  0  0  0  0  0  0  0  0
    4.7845   -8.8110   17.8145 F   0  0  0  0  0  0  0  0  0  0  0  0
    2.4507   -9.3569   16.8395 C   0  0  0  0  0  0  0  0  0  0  0  0
    8.8847   -7.0956   16.7886 F   0  0  0  0  0  0  0  0  0  0  0  0
   10.6078   -3.8651   17.4150 C   0  0  0  0  0  0  0  0  0  0  0  0
    9.2976   -4.7890   16.7654 C   0  0  0  0  0  0  0  0  0  0  0  0
    8.3839   -7.2788   15.2750 F   0  0  0  0  0  0  0  0  0  0  0  0
   10.6712   -5.8696   18.8627 C   0  0  0  0  0  0  0  0  0  0  0  0
    9.4033   -4.7383   16.2253 C   0  0  0  0  0  0  0  0  0  0  0  0
    6.6983   -8.4468   17.9154 F   0  0  0  0  0  0  0  0  0  0  0  0
  1  9  4  0
  3 15  1  0
  6 13  4  0
 10 19  4  0
 21 22  1  0
M  END
$$$$

 Created by Python create_sdf_string function

 34 70  0  0  0  0  0  0  0  0999 V2000
   12.2819   -4.7497   14.2345 F   0  0  0  0  0  0  0  0  0  0  0  0
    4.2755   -5.1884   16.5938 Se  0  0  0  0  0  0  0  0  0  0  0  0
    6.0706   -7.6557   19.4990 Cl  0  0  0  0  0  0  0  0  0  0  0  0
   11.2429   -2.5238   14.3859 N   0  0  0  0  0  0  0  0  0  0  0  0
   11.9917   -5.6057   16.6870 I   0  0  0  0  0  0  0  0  0  0  0  0
    8.2282   -8.7816   17.3017 C   0  0  0  0  0  0  0  0  0  0  0  0
    6.3502   -9.9670   16.3261 O   0  0  0  0  0  0  0  0  0  0  0  0
    0.5431   -9.3553   15.2783 C   0  0  0  0  0  0  0  0  0  0  0  0
   12.6604   -1.7695   17.0221 C   0  0  0  0  0  0  0  0  0  0  0  0
    9.6483   -9.0262   17.6102 N   0  0  0  0  0  0  0  0  0  0  0  0
    4.0363   -8.7169   16.2665 C   0  0  0  0  0  0  0  0  0  0  0  0
    1.3514   -7.7229   16.2792 P   0  0  0  0  0  0  0  0  0  0  0  0
    1.2882   -9.0970   15.0032 C   0  0  0  0  0  0  0  0  0  0  0  0
    8.4714   -8.9138   16.2790 C   0  0  0  0  0  0  0  0  0  0  0  0
   10.2576   -5.8442   17.6463 C   0  0  0  0  0  0  0  0  0  0  0  0
    7.5194   -7.6860   16.2695 F   0  0  0  0  0  0  0  0  0  0  0  0
    8.9330   -3.1292   16.1107 F   0  0  0  0  0  0  0  0  0  0  0  0
    4.6411   -9.6778   17.7131 F   0  0  0  0  0  0  0  0  0  0  0  0
   11.6901   -4.9896   21.8267 He  0  0  0  0  0  0  0  0  0  0  0  0
    7.7056   -7.3363   17.4617 He  0  0  0  0  0  0  0  0  0  0  0  0
    9.2582   -7.3853   16.2602 He  0  0  0  0  0  0  0  0  0  0  0  0
    5.5187   -6.2399   17.2675 He  0  0  0  0  0  0  0  0  0  0  0  0
   11.0254   -3.8220   15.0053 He  0  0  0  0  0  0  0  0  0  0  0  0
   11.5149   -4.9028   20.4444 He  0  0  0  0  0  0  0  0  0  0  0  0
   12.1027   -5.9311   20.1154 He  0  0  0  0  0  0  0  0  0  0  0  0
    4.0147   -8.3129   16.0216 He  0  0  0  0  0  0  0  0  0  0  0  0
   10.7226   -4.0095   19.6424 He  0  0  0  0  0  0  0  0  0  0  0  0
    5.1653   -8.7346   15.4348 He  0  0  0  0  0  0  0  0  0  0  0  0
   12.9442   -4.1642   17.8144 He  0  0  0  0  0  0  0  0  0  0  0  0
    9.4419   -7.7464   18.4818 He  0  0  0  0  0  0  0  0  0  0  0  0
    4.7023   -9.0088   19.0491 He  0  0  0  0  0  0  0  0  0  0  0  0
    1.4200   -8.9759   16.2480 He  0  0  0  0  0  0  0  0  0  0  0  0
    7.5289   -6.0360   16.2896 He  0  0  0  0  0  0  0  0  0  0  0  0
   11.0116   -4.1995   17.4683 He  0  0  0  0  0  0  0  0  0  0  0  0
  1  2  4  0
  1  3  2  0
  1  6  3  0
  1  7  3  0
  1 11  3  0
  1 15  1  0
  1 18  3  0
  2  3  1  0
  2  4  4  0
  2  5  4  0
  2  7  1  0
  2 10  4  0
  2 11  1  0
  2 12  2  0
  2 13  3  0
  2 14  3  0
  2 17  3  0
  2 18  3  0
  3  4  4  0
  3  6  4  0
  3  9  2  0
  3 10  4  0
  3 11  4  0
  3 12  2  0
  3 15  4  0
  3 18  3  0
  4  7  1  0
  4  9  4  0
  4 14  4  0
  4 15  3  0
  4 17  1  0
  4 18  2  0
  5  6  4  0
  5 11  1  0
  5 18  3  0
  6  8  4  0
  6  9  1  0
  6 10  1  0
  6 13  4  0
  6 14  2  0
  6 16  2  0
  6 17  3  0
  7 10  2  0
  7 14  3  0
  7 16  2  0
  8  9  4  0
  8 10  1  0
  8 13  2  0
  8 15  3  0
  8 16  2  0
  8 18  1  0
  9 11  2  0
  9 18  4  0
 10 12  1  0
 10 14  3  0
 11 12  1  0
 11 14  2  0
 11 15  3  0
 11 18  3  0
 12 14  1  0
 12 16  2  0
 12 17  2  0
 12 18  4  0
 13 15  3  0
 13 18  1  0
 14 16  3  0
 14 17  3  0
 14 18  1  0
 16 17  2  0
 16 18  3  0
M  END
$$$$

 Created by Python create_sdf_string function

 34  2  0  0  0  0  0  0  0  0999 V2000
   11.3479   -4.7252   21.2428 C   0  0  0  0  0  0  0  0  0  0  0  0
   12.0486   -3.6777   14.8656 C   0  0  0  0  0  0  0  0  0  0  0  0
    7.7942   -7.0879   17.4017 C   0  0  0  0  0  0  0  0  0  0  0  0
    8.9588   -6.8479   16.4680 C   0  0  0  0  0  0  0  0  0  0  0  0
    5.6993   -7.2195   16.9115 C   0  0  0  0  0  0  0  0  0  0  0  0
   11.1769   -3.7475   15.5989 C   0  0  0  0  0  0  0  0  0  0  0  0
    4.2153   -6.9030   15.8009 C   0  0  0  0  0  0  0  0  0  0  0  0
    6.1757   -7.9666   18.4700 F   0  0  0  0  0  0  0  0  0  0  0  0
   11.1721   -4.8906   20.1084 C   0  0  0  0  0  0  0  0  0  0  0  0
   11.6345   -5.3748   19.8055 C   0  0  0  0  0  0  0  0  0  0  0  0
    3.6257   -8.3023   16.2129 C   0  0  0  0  0  0  0  0  0  0  0  0
   10.7874   -4.3414   19.1683 C   0  0  0  0  0  0  0  0  0  0  0  0
   11.7029   -3.2954   14.9353 C   0  0  0  0  0  0  0  0  0  0  0  0
   11.3199   -4.4476   17.0257 C   0  0  0  0  0  0  0  0  0  0  0  0
    7.9729   -8.1808   17.2982 C   0  0  0  0  0  0  0  0  0  0  0  0
    6.4619   -9.4627   16.3417 F   0  0  0  0  0  0  0  0  0  0  0  0
    1.0183   -9.1908   15.5454 C   0  0  0  0  0  0  0  0  0  0  0  0
    5.0167   -8.5001   15.8937 C   0  0  0  0  0  0  0  0  0  0  0  0
   11.7245   -4.5017   18.2283 C   0  0  0  0  0  0  0  0  0  0  0  0
   12.2742   -2.7585   16.2565 C   0  0  0  0  0  0  0  0  0  0  0  0
    9.1155   -8.2793   17.6097 F   0  0  0  0  0  0  0  0  0  0  0  0
    9.2316   -7.2763   18.2340 C   0  0  0  0  0  0  0  0  0  0  0  0
    3.7101   -8.4966   16.2299 C   0  0  0  0  0  0  0  0  0  0  0  0
    1.9255   -7.8812   15.8897 C   0  0  0  0  0  0  0  0  0  0  0  0
    1.4498   -9.0551   15.4336 C   0  0  0  0  0  0  0  0  0  0  0  0
    5.1852   -9.0068   17.8727 C   0  0  0  0  0  0  0  0  0  0  0  0
    1.7803   -9.0772   16.2045 C   0  0  0  0  0  0  0  0  0  0  0  0
    7.9724   -8.2829   16.0666 C   0  0  0  0  0  0  0  0  0  0  0  0
   10.3518   -5.6603   18.4207 C   0  0  0  0  0  0  0  0  0  0  0  0
    7.5089   -6.1167   16.1895 C   0  0  0  0  0  0  0  0  0  0  0  0
    7.3352   -7.7147   16.1521 F   0  0  0  0  0  0  0  0  0  0  0  0
   11.0047   -4.1948   17.7460 C   0  0  0  0  0  0  0  0  0  0  0  0
    9.5021   -3.9093   15.9521 C   0  0  0  0  0  0  0  0  0  0  0  0
    4.4026   -9.0191   17.2311 C   0  0  0  0  0  0  0  0  0  0  0  0
 15 21  1  0
 17 25  4  0
M  END
$$$$

 Created by Python create_sdf_string function

 34117  0  0  0  0  0  0  0  0999 V2000
   12.1459   -4.1499   21.7053 F   0  0  0  0  0  0  0  0  0  0  0  0
   11.5216   -2.9692   13.0543 C   0  0  0  0  0  0  0  0  0  0  0  0
    6.8501   -6.7391   16.9690 O   0  0  0  0  0  0  0  0  0  0  0  0
    5.8635   -6.3278   16.7993 C   0  0  0  0  0  0  0  0  0  0  0  0
   11.8463   -3.0131   14.7724 C   0  0  0  0  0  0  0  0  0  0  0  0
    7.7173   -9.3600   17.8337 C   0  0  0  0  0  0  0  0  0  0  0  0
   11.9018   -5.9436   21.9426 C   0  0  0  0  0  0  0  0  0  0  0  0
   12.9136   -5.0001   20.4839 Cl  0  0  0  0  0  0  0  0  0  0  0  0
    3.2378   -8.5828   15.6466 C   0  0  0  0  0  0  0  0  0  0  0  0
    9.7162   -4.5433   19.0798 F   0  0  0  0  0  0  0  0  0  0  0  0
   12.4347   -3.8999   14.8731 C   0  0  0  0  0  0  0  0  0  0  0  0
   11.2721   -4.0245   16.5214 F   0  0  0  0  0  0  0  0  0  0  0  0
   11.0491   -8.0111   17.4040 C   0  0  0  0  0  0  0  0  0  0  0  0
    4.9981   -8.1008   14.7586 C   0  0  0  0  0  0  0  0  0  0  0  0
   12.1580   -2.4411   16.5960 C   0  0  0  0  0  0  0  0  0  0  0  0
    9.0755   -5.5020   17.5661 N   0  0  0  0  0  0  0  0  0  0  0  0
    3.5498   -6.4276   16.5039 P   0  0  0  0  0  0  0  0  0  0  0  0
    2.1798   -8.8889   15.9852 C   0  0  0  0  0  0  0  0  0  0  0  0
    4.5002   -8.3912   18.1513 Cl  0  0  0  0  0  0  0  0  0  0  0  0
    2.0917   -9.4472   16.3259 F   0  0  0  0  0  0  0  0  0  0  0  0
    8.5630   -8.6198   18.0810 C   0  0  0  0  0  0  0  0  0  0  0  0
    9.5974   -5.2107   18.6968 O   0  0  0  0  0  0  0  0  0  0  0  0
    8.3299   -4.8549   16.1539 C   0  0  0  0  0  0  0  0  0  0  0  0
    8.6357   -8.5919   15.3920 C   0  0  0  0  0  0  0  0  0  0  0  0
    9.5955   -3.2573   15.9317 S   0  0  0  0  0  0  0  0  0  0  0  0
    8.6953   -6.6920   15.3690 He  0  0  0  0  0  0  0  0  0  0  0  0
    4.6704   -6.7079   15.6873 He  0  0  0  0  0  0  0  0  0  0  0  0
    7.9414   -8.4414   16.5569 He  0  0  0  0  0  0  0  0  0  0  0  0
    1.0360   -8.9106   15.8441 He  0  0  0  0  0  0  0  0  0  0  0  0
   13.5512   -5.5180   18.1250 He  0  0  0  0  0  0  0  0  0  0  0  0
    8.6498   -6.9912   17.7326 He  0  0  0  0  0  0  0  0  0  0  0  0
    3.8242   -7.5692   15.2586 He  0  0  0  0  0  0  0  0  0  0  0  0
   12.0301   -3.5903   16.8399 He  0  0  0  0  0  0  0  0  0  0  0  0
    5.0931   -8.9862   18.2053 He  0  0  0  0  0  0  0  0  0  0  0  0
  1  7  4  0
  1  9  1  0
  1 10  3  0
  1 12  2  0
  1 20  1  0
  1 21  3  0
  2  5  2  0
  2 10  2  0
  2 11  1  0
  2 15  1  0
  2 17  4  0
  2 18  4  0
  2 19  3  0
  2 21  4  0
  2 22  4  0
  2 23  3  0
  2 25  4  0
  3  5  2  0
  3  7  1  0
  3  9  2  0
  3 12  2  0
  3 14  3  0
  3 16  1  0
  3 17  4  0
  3 21  2  0
  3 24  3  0
  3 25  1  0
  4  7  3  0
  4 12  3  0
  4 13  1  0
  4 16  3  0
  4 18  4  0
  4 20  4  0
  4 23  1  0
  4 24  4  0
  5 10  2  0
  5 13  4  0
  5 15  2  0
  5 20  2  0
  5 21  2  0
  5 24  4  0
  6  7  4  0
  6  8  1  0
  6 11  3  0
  6 13  3  0
  6 14  2  0
  6 15  1  0
  6 17  1  0
  6 19  2  0
  6 21  1  0
  7 12  2  0
  7 14  3  0
  7 15  2  0
  7 19  2  0
  7 22  1  0
  7 23  4  0
  7 25  4  0
  8  9  1  0
  8 10  3  0
  8 14  3  0
  8 15  1  0
  8 19  4  0
  8 23  3  0
  9 14  4  0
  9 16  4  0
  9 19  4  0
  9 20  3  0
  9 21  4  0
  9 22  4  0
  9 23  4  0
  9 24  1  0
 10 11  2  0
 10 14  3  0
 10 15  1  0
 10 16  1  0
 10 17  2  0
 10 24  3  0
 10 25  3  0
 11 12  2  0
 11 14  1  0
 11 17  1  0
 11 19  2  0
 11 22  1  0
 11 23  2  0
 11 24  2  0
 11 25  4  0
 12 18  3  0
 12 23  3  0
 12 24  2  0
 13 15  4  0
 13 17  2  0
 13 18  4  0
 14 17  1  0
 14 18  2  0
 14 19  2  0
 14 23  3  0
 15 16  2  0
 15 17  3  0
 15 19  1  0
 15 24  2  0
 15 25  2  0
 17 18  2  0
 17 19  1  0
 17 21  2  0
 17 23  3  0
 17 24  3  0
 17 25  3  0
 18 23  4  0
 18 24  2  0
 18 25  3  0
 19 20  3  0
 19 22  1  0
 20 22  2  0
 20 23  1  0
 20 24  4  0
 22 24  3  0
 24 25  2  0
M  END
$$$$

 Created by Python create_sdf_string function

 34  8  0  0  0  0  0  0  0  0999 V2000
   11.7320   -4.5314   21.0394 C   0  0  0  0  0  0  0  0  0  0  0  0
   12.1387   -3.0098   13.8735 O   0  0  0  0  0  0  0  0  0  0  0  0
    6.8428   -6.7017   16.8281 C   0  0  0  0  0  0  0  0  0  0  0  0
    8.4142   -6.9939   15.6980 C   0  0  0  0  0  0  0  0  0  0  0  0
    6.1543   -7.0400   16.5668 C   0  0  0  0  0  0  0  0  0  0  0  0
   12.2005   -3.2646   14.8995 C   0  0  0  0  0  0  0  0  0  0  0  0
    4.9600   -7.2118   15.8752 C   0  0  0  0  0  0  0  0  0  0  0  0
    7.4838   -8.3949   17.7157 C   0  0  0  0  0  0  0  0  0  0  0  0
   11.4901   -4.9518   21.1500 C   0  0  0  0  0  0  0  0  0  0  0  0
   12.4310   -5.0719   20.4527 C   0  0  0  0  0  0  0  0  0  0  0  0
    3.2982   -8.6656   15.9826 C   0  0  0  0  0  0  0  0  0  0  0  0
   10.4753   -4.8685   19.0203 C   0  0  0  0  0  0  0  0  0  0  0  0
   12.0780   -3.5282   15.1376 C   0  0  0  0  0  0  0  0  0  0  0  0
   10.9203   -4.1808   16.8437 C   0  0  0  0  0  0  0  0  0  0  0  0
    9.9476   -7.3762   18.2477 C   0  0  0  0  0  0  0  0  0  0  0  0
    7.8152   -8.2296   16.2130 C   0  0  0  0  0  0  0  0  0  0  0  0
    1.3461   -9.2619   15.8876 C   0  0  0  0  0  0  0  0  0  0  0  0
    4.8543   -8.3474   15.5902 C   0  0  0  0  0  0  0  0  0  0  0  0
   12.4614   -5.4091   18.6281 C   0  0  0  0  0  0  0  0  0  0  0  0
   11.9941   -3.1834   16.3706 C   0  0  0  0  0  0  0  0  0  0  0  0
    8.8178   -7.0310   17.7965 C   0  0  0  0  0  0  0  0  0  0  0  0
    9.6183   -5.4045   17.6643 C   0  0  0  0  0  0  0  0  0  0  0  0
    3.4000   -8.0821   15.5431 C   0  0  0  0  0  0  0  0  0  0  0  0
    4.1194   -7.4346   16.0776 C   0  0  0  0  0  0  0  0  0  0  0  0
    2.1197   -8.9100   15.9268 C   0  0  0  0  0  0  0  0  0  0  0  0
    4.4349   -8.5808   17.1728 C   0  0  0  0  0  0  0  0  0  0  0  0
    1.9838   -9.3168   16.6023 C   0  0  0  0  0  0  0  0  0  0  0  0
    8.2437   -8.2097   17.8592 C   0  0  0  0  0  0  0  0  0  0  0  0
   10.2789   -5.1548   18.8586 C   0  0  0  0  0  0  0  0  0  0  0  0
    8.7428   -5.1971   16.2786 C   0  0  0  0  0  0  0  0  0  0  0  0
    8.1726   -8.2468   15.5313 C   0  0  0  0  0  0  0  0  0  0  0  0
   11.7153   -3.8721   16.8966 C   0  0  0  0  0  0  0  0  0  0  0  0
   10.0533   -3.8927   15.9171 C   0  0  0  0  0  0  0  0  0  0  0  0
    5.3020   -8.7653   17.8325 C   0  0  0  0  0  0  0  0  0  0  0  0
  1  9  4  0
  3  5  1  0
  7 24  1  0
  8 28  1  0
 12 29  4  0
 15 21  1  0
 16 31  1  0
 17 25  4  0
M  END
$$$$

 Created by Python create_sdf_string function

 34 52  0  0  0  0  0  0  0  0999 V2000
   12.2705   -2.8846   12.2042 C   0  0  0  0  0  0  0  0  0  0  0  0
    7.8061   -5.9489   13.7967 C   0  0  0  0  0  0  0  0  0  0  0  0
   12.2359   -3.8452   14.7403 N   0  0  0  0  0  0  0  0  0  0  0  0
    6.0160   -6.0634   15.1098 C   0  0  0  0  0  0  0  0  0  0  0  0
   10.8435   -4.8240   18.2263 C   0  0  0  0  0  0  0  0  0  0  0  0
   12.3189   -1.7288   14.2558 O   0  0  0  0  0  0  0  0  0  0  0  0
   10.6769   -3.7303   18.0764 C   0  0  0  0  0  0  0  0  0  0  0  0
    7.4272   -8.3796   17.8750 N   0  0  0  0  0  0  0  0  0  0  0  0
    0.8412   -9.0375   15.2356 C   0  0  0  0  0  0  0  0  0  0  0  0
    7.0127   -6.7814   17.2341 C   0  0  0  0  0  0  0  0  0  0  0  0
   11.1093   -5.4770   19.5579 N   0  0  0  0  0  0  0  0  0  0  0  0
    9.8745   -7.0040   16.9686 S   0  0  0  0  0  0  0  0  0  0  0  0
    3.1769   -8.1671   16.2630 F   0  0  0  0  0  0  0  0  0  0  0  0
    2.0293   -8.2608   16.3675 N   0  0  0  0  0  0  0  0  0  0  0  0
    3.6038   -8.9245   16.7412 F   0  0  0  0  0  0  0  0  0  0  0  0
    2.2903   -8.1728   15.8578 C   0  0  0  0  0  0  0  0  0  0  0  0
    7.5630   -9.6196   19.9888 P   0  0  0  0  0  0  0  0  0  0  0  0
   11.4389   -3.3384   18.0467 C   0  0  0  0  0  0  0  0  0  0  0  0
   11.6537   -5.3970   20.6680 He  0  0  0  0  0  0  0  0  0  0  0  0
    8.9641   -5.6929   16.6305 He  0  0  0  0  0  0  0  0  0  0  0  0
    6.5503   -9.2149   16.2865 He  0  0  0  0  0  0  0  0  0  0  0  0
    7.5617   -7.5599   18.9026 He  0  0  0  0  0  0  0  0  0  0  0  0
   12.1758   -5.8203   21.8797 He  0  0  0  0  0  0  0  0  0  0  0  0
    9.7444   -6.0199   20.4870 He  0  0  0  0  0  0  0  0  0  0  0  0
    3.1729   -6.3615   14.7769 He  0  0  0  0  0  0  0  0  0  0  0  0
    9.7078   -9.0037   17.4439 He  0  0  0  0  0  0  0  0  0  0  0  0
   11.8970   -1.6832   17.8210 He  0  0  0  0  0  0  0  0  0  0  0  0
    9.2295   -5.0426   18.1096 He  0  0  0  0  0  0  0  0  0  0  0  0
    3.3015   -7.1748   15.8589 He  0  0  0  0  0  0  0  0  0  0  0  0
    8.9292   -6.3112   16.1294 He  0  0  0  0  0  0  0  0  0  0  0  0
    8.4125   -7.4024   15.7626 He  0  0  0  0  0  0  0  0  0  0  0  0
   10.6959   -4.0068   17.3258 He  0  0  0  0  0  0  0  0  0  0  0  0
    9.9375   -3.5918   15.6682 He  0  0  0  0  0  0  0  0  0  0  0  0
    4.8731   -9.3510   18.1391 He  0  0  0  0  0  0  0  0  0  0  0  0
  1  3  3  0
  1  5  2  0
  1 10  4  0
  1 11  1  0
  1 13  3  0
  1 16  2  0
  1 17  4  0
  2  5  2  0
  2  6  1  0
  2 10  3  0
  2 14  2  0
  2 16  4  0
  3 11  3  0
  3 12  4  0
  3 14  3  0
  3 16  4  0
  4  6  1  0
  4  7  4  0
  4  8  4  0
  4 10  2  0
  4 14  3  0
  4 15  3  0
  4 16  3  0
  5  9  3  0
  5 10  4  0
  5 11  1  0
  5 14  2  0
  5 15  1  0
  5 16  2  0
  5 17  4  0
  6 10  4  0
  6 11  4  0
  6 12  1  0
  6 16  1  0
  7 13  3  0
  7 15  4  0
  7 17  4  0
  9 16  2  0
 10 11  1  0
 10 12  4  0
 10 17  1  0
 11 14  4  0
 11 16  2  0
 11 18  2  0
 12 13  1  0
 13 15  3  0
 13 16  3  0
 13 17  4  0
 14 16  3  0
 14 17  3  0
 15 17  1  0
 16 18  1  0
M  END
$$$$

 Created by Python create_sdf_string function

 34  6  0  0  0  0  0  0  0  0999 V2000
   11.4557   -4.6461   20.9346 C   0  0  0  0  0  0  0  0  0  0  0  0
   12.3846   -3.0458   13.4325 C   0  0  0  0  0  0  0  0  0  0  0  0
    9.2301   -5.4411   16.8043 C   0  0  0  0  0  0  0  0  0  0  0  0
    7.6656   -6.1801   15.3050 C   0  0  0  0  0  0  0  0  0  0  0  0
    6.2020   -8.8076   16.6659 C   0  0  0  0  0  0  0  0  0  0  0  0
   12.1268   -3.3461   14.8814 C   0  0  0  0  0  0  0  0  0  0  0  0
    5.3545   -6.8263   15.4133 C   0  0  0  0  0  0  0  0  0  0  0  0
    7.6593   -7.7279   18.1134 C   0  0  0  0  0  0  0  0  0  0  0  0
   11.4775   -4.8631   21.4845 C   0  0  0  0  0  0  0  0  0  0  0  0
   10.5778   -5.5532   20.0653 C   0  0  0  0  0  0  0  0  0  0  0  0
    3.0798   -7.0114   15.1306 C   0  0  0  0  0  0  0  0  0  0  0  0
   10.7286   -4.6536   18.5938 C   0  0  0  0  0  0  0  0  0  0  0  0
   12.7109   -2.8522   14.3986 O   0  0  0  0  0  0  0  0  0  0  0  0
   11.0724   -3.7818   18.0630 C   0  0  0  0  0  0  0  0  0  0  0  0
    9.2489   -8.3119   17.5660 F   0  0  0  0  0  0  0  0  0  0  0  0
    6.9439   -8.2644   17.3661 C   0  0  0  0  0  0  0  0  0  0  0  0
    1.1171   -8.8065   15.3300 C   0  0  0  0  0  0  0  0  0  0  0  0
    7.0396   -7.2463   16.8327 C   0  0  0  0  0  0  0  0  0  0  0  0
   11.0300   -4.9478   19.7351 C   0  0  0  0  0  0  0  0  0  0  0  0
   12.0159   -2.4333   17.0292 C   0  0  0  0  0  0  0  0  0  0  0  0
    9.1449   -7.0090   17.3618 C   0  0  0  0  0  0  0  0  0  0  0  0
    9.6545   -5.4376   18.0342 C   0  0  0  0  0  0  0  0  0  0  0  0
    3.2985   -8.6420   16.4180 C   0  0  0  0  0  0  0  0  0  0  0  0
    3.6189   -7.5226   15.6858 C   0  0  0  0  0  0  0  0  0  0  0  0
    2.3753   -8.5896   16.0412 C   0  0  0  0  0  0  0  0  0  0  0  0
    3.8724   -8.6467   16.6114 C   0  0  0  0  0  0  0  0  0  0  0  0
    2.1282   -8.4633   15.7587 C   0  0  0  0  0  0  0  0  0  0  0  0
    7.1413   -8.3600   18.9974 F   0  0  0  0  0  0  0  0  0  0  0  0
   11.3110   -3.3888   17.7236 C   0  0  0  0  0  0  0  0  0  0  0  0
    8.4264   -6.3118   16.2168 C   0  0  0  0  0  0  0  0  0  0  0  0
    8.2399   -7.7173   15.8208 F   0  0  0  0  0  0  0  0  0  0  0  0
   10.9299   -3.9047   16.9241 C   0  0  0  0  0  0  0  0  0  0  0  0
   10.7748   -3.8626   15.6883 C   0  0  0  0  0  0  0  0  0  0  0  0
    5.1337   -9.0113   17.7766 C   0  0  0  0  0  0  0  0  0  0  0  0
  1  9  4  0
 11 24  4  0
 14 29  4  0
 15 21  1  0
 17 27  1  0
 23 26  4  0
M  END
$$$$

 Created by Python create_sdf_string function

 34 49  0  0  0  0  0  0  0  0999 V2000
    9.5508   -5.9781   21.5519 N   0  0  0  0  0  0  0  0  0  0  0  0
   10.9565   -2.6487   12.3380 N   0  0  0  0  0  0  0  0  0  0  0  0
    8.9285   -4.0940   17.7177 N   0  0  0  0  0  0  0  0  0  0  0  0
    8.2931   -8.4617   15.8770 F   0  0  0  0  0  0  0  0  0  0  0  0
    3.8002   -7.5356   15.7333 B   0  0  0  0  0  0  0  0  0  0  0  0
   10.1243   -4.0837   20.1276 C   0  0  0  0  0  0  0  0  0  0  0  0
    3.1975   -7.1809   16.4499 F   0  0  0  0  0  0  0  0  0  0  0  0
   11.4148   -5.4710   20.5764 C   0  0  0  0  0  0  0  0  0  0  0  0
   11.9865   -3.8789   14.2206 N   0  0  0  0  0  0  0  0  0  0  0  0
   10.4788   -2.7639   18.7989 N   0  0  0  0  0  0  0  0  0  0  0  0
   10.2495   -8.5875   17.5991 O   0  0  0  0  0  0  0  0  0  0  0  0
    0.4228   -8.3304   15.6536 I   0  0  0  0  0  0  0  0  0  0  0  0
    3.8075   -8.8306   14.3647 C   0  0  0  0  0  0  0  0  0  0  0  0
    3.1212   -7.4284   15.1828 O   0  0  0  0  0  0  0  0  0  0  0  0
    2.7649   -6.8741   14.0225 S   0  0  0  0  0  0  0  0  0  0  0  0
   10.7078   -3.5093   16.1363 O   0  0  0  0  0  0  0  0  0  0  0  0
    9.5867   -3.5616   16.0395 C   0  0  0  0  0  0  0  0  0  0  0  0
    9.4417   -4.4377   17.0823 He  0  0  0  0  0  0  0  0  0  0  0  0
   11.9784   -4.3051   13.8568 He  0  0  0  0  0  0  0  0  0  0  0  0
    8.2612   -8.2012   17.6782 He  0  0  0  0  0  0  0  0  0  0  0  0
   11.4973   -3.4678   21.5835 He  0  0  0  0  0  0  0  0  0  0  0  0
    7.6400   -9.0329   16.8018 He  0  0  0  0  0  0  0  0  0  0  0  0
    7.4450   -7.8490   17.6555 He  0  0  0  0  0  0  0  0  0  0  0  0
   10.9567   -5.9077   19.5233 He  0  0  0  0  0  0  0  0  0  0  0  0
   12.4852   -2.6705   17.3502 He  0  0  0  0  0  0  0  0  0  0  0  0
    8.7640   -6.7461   18.7259 He  0  0  0  0  0  0  0  0  0  0  0  0
    9.6049   -4.6433   19.1241 He  0  0  0  0  0  0  0  0  0  0  0  0
    4.7568   -8.3165   16.2169 He  0  0  0  0  0  0  0  0  0  0  0  0
    1.2805   -7.8415   16.0228 He  0  0  0  0  0  0  0  0  0  0  0  0
    5.8605   -9.2646   19.3895 He  0  0  0  0  0  0  0  0  0  0  0  0
   11.2997   -4.7496   19.4994 He  0  0  0  0  0  0  0  0  0  0  0  0
    6.8969   -4.9692   16.7716 He  0  0  0  0  0  0  0  0  0  0  0  0
    8.8565   -9.7771   17.0094 He  0  0  0  0  0  0  0  0  0  0  0  0
    4.4481   -7.7281   17.1031 He  0  0  0  0  0  0  0  0  0  0  0  0
  1  6  3  0
  1  9  1  0
  1 11  3  0
  1 12  2  0
  1 16  2  0
  1 17  3  0
  2  4  2  0
  2  9  2  0
  2 15  3  0
  2 16  1  0
  2 17  1  0
  3  7  2  0
  3  9  2  0
  4  5  4  0
  4  9  4  0
  4 15  2  0
  5  6  3  0
  5  7  1  0
  5  8  3  0
  5 11  1  0
  5 14  4  0
  5 16  4  0
  6  7  1  0
  6  8  3  0
  6 10  4  0
  6 11  2  0
  6 14  4  0
  7  8  2  0
  7 11  1  0
  7 12  2  0
  7 13  2  0
  7 16  2  0
  8 10  4  0
  8 11  4  0
  8 12  1  0
  8 13  2  0
  8 14  1  0
  8 17  2  0
  9 15  3  0
 10 11  3  0
 10 13  4  0
 10 15  4  0
 11 12  1  0
 11 15  3  0
 11 17  4  0
 12 17  3  0
 14 15  4  0
 14 16  1  0
 15 17  2  0
M  END
$$$$

 Created by Python create_sdf_string function

 34  7  0  0  0  0  0  0  0  0999 V2000
   10.8777   -5.1264   21.0493 C   0  0  0  0  0  0  0  0  0  0  0  0
   11.9356   -2.8684   13.4507 O   0  0  0  0  0  0  0  0  0  0  0  0
    9.7724   -4.4630   16.7068 C   0  0  0  0  0  0  0  0  0  0  0  0
    9.6895   -4.6005   17.3264 C   0  0  0  0  0  0  0  0  0  0  0  0
    7.9282   -8.3114   16.0150 F   0  0  0  0  0  0  0  0  0  0  0  0
   12.3939   -3.4606   14.3399 O   0  0  0  0  0  0  0  0  0  0  0  0
    3.9178   -7.7809   15.9403 C   0  0  0  0  0  0  0  0  0  0  0  0
    8.2240   -7.7184   17.4226 C   0  0  0  0  0  0  0  0  0  0  0  0
   11.3828   -3.7727   21.7379 C   0  0  0  0  0  0  0  0  0  0  0  0
   10.6735   -4.1045   20.1662 C   0  0  0  0  0  0  0  0  0  0  0  0
    3.2729   -7.8087   16.3129 C   0  0  0  0  0  0  0  0  0  0  0  0
   11.5024   -4.8594   20.6615 C   0  0  0  0  0  0  0  0  0  0  0  0
   12.0700   -3.3134   14.4611 C   0  0  0  0  0  0  0  0  0  0  0  0
   10.9567   -3.4083   18.1967 C   0  0  0  0  0  0  0  0  0  0  0  0
    9.5440   -8.0272   17.8690 F   0  0  0  0  0  0  0  0  0  0  0  0
    7.1341   -8.2858   16.7490 C   0  0  0  0  0  0  0  0  0  0  0  0
    0.7410   -8.0277   15.3196 C   0  0  0  0  0  0  0  0  0  0  0  0
    7.2009   -7.7175   17.4125 C   0  0  0  0  0  0  0  0  0  0  0  0
   10.5618   -5.7703   19.4652 C   0  0  0  0  0  0  0  0  0  0  0  0
   11.9935   -3.1914   16.5090 C   0  0  0  0  0  0  0  0  0  0  0  0
    8.8392   -6.7386   18.0039 C   0  0  0  0  0  0  0  0  0  0  0  0
   10.0367   -4.7129   18.4745 C   0  0  0  0  0  0  0  0  0  0  0  0
    3.4445   -8.1276   15.1443 C   0  0  0  0  0  0  0  0  0  0  0  0
    2.5744   -7.5132   15.3957 C   0  0  0  0  0  0  0  0  0  0  0  0
    2.2402   -7.1197   14.7757 C   0  0  0  0  0  0  0  0  0  0  0  0
    4.9539   -8.1059   16.3031 C   0  0  0  0  0  0  0  0  0  0  0  0
    1.4483   -7.8786   15.8250 C   0  0  0  0  0  0  0  0  0  0  0  0
    6.0391   -8.4300   18.6130 O   0  0  0  0  0  0  0  0  0  0  0  0
   11.1036   -4.5197   19.7311 C   0  0  0  0  0  0  0  0  0  0  0  0
    7.5398   -5.5745   15.9747 O   0  0  0  0  0  0  0  0  0  0  0  0
    8.4411   -8.5173   16.8371 C   0  0  0  0  0  0  0  0  0  0  0  0
   10.9058   -3.7161   15.8470 C   0  0  0  0  0  0  0  0  0  0  0  0
   10.1553   -3.8455   15.8856 C   0  0  0  0  0  0  0  0  0  0  0  0
    4.7188   -7.9432   16.8245 C   0  0  0  0  0  0  0  0  0  0  0  0
  2 13  2  0
  3  4  4  0
  3 33  4  0
  6 13  2  0
 16 18  1  0
 24 25  4  0
 32 33  4  0
M  END
$$$$

 Created by Python create_sdf_string function

 34 48  0  0  0  0  0  0  0  0999 V2000
    9.8971   -3.6253   17.9264 F   0  0  0  0  0  0  0  0  0  0  0  0
    2.9532   -7.6512   16.1850 C   0  0  0  0  0  0  0  0  0  0  0  0
    3.6863   -6.5217   16.0559 C   0  0  0  0  0  0  0  0  0  0  0  0
   11.6984   -4.5926   22.2182 N   0  0  0  0  0  0  0  0  0  0  0  0
   10.7900   -3.8801   18.4914 Cl  0  0  0  0  0  0  0  0  0  0  0  0
    0.7940   -9.0372   15.4374 I   0  0  0  0  0  0  0  0  0  0  0  0
    6.6548   -9.7808   18.4813 F   0  0  0  0  0  0  0  0  0  0  0  0
    9.1898   -6.1513   19.3119 O   0  0  0  0  0  0  0  0  0  0  0  0
   10.7107   -2.8372   16.6755 I   0  0  0  0  0  0  0  0  0  0  0  0
    9.2682   -7.1938   17.9136 P   0  0  0  0  0  0  0  0  0  0  0  0
   10.1409   -3.9847   17.5408 F   0  0  0  0  0  0  0  0  0  0  0  0
    3.6372   -8.1276   14.8618 B   0  0  0  0  0  0  0  0  0  0  0  0
    6.4422   -8.3541   15.3569 C   0  0  0  0  0  0  0  0  0  0  0  0
   11.4573   -4.1142   20.4175 O   0  0  0  0  0  0  0  0  0  0  0  0
    8.1803   -7.2719   15.6858 S   0  0  0  0  0  0  0  0  0  0  0  0
   10.1648   -2.8500   15.3753 C   0  0  0  0  0  0  0  0  0  0  0  0
   11.5285   -6.1287   22.5316 He  0  0  0  0  0  0  0  0  0  0  0  0
   11.0807   -2.2243   13.2570 He  0  0  0  0  0  0  0  0  0  0  0  0
    9.5031   -3.3540   16.9156 He  0  0  0  0  0  0  0  0  0  0  0  0
    7.1075   -9.4428   15.3983 He  0  0  0  0  0  0  0  0  0  0  0  0
   13.2176   -3.1381   14.1064 He  0  0  0  0  0  0  0  0  0  0  0  0
    9.3297   -6.9648   18.1224 He  0  0  0  0  0  0  0  0  0  0  0  0
   10.8909   -2.6459   22.5162 He  0  0  0  0  0  0  0  0  0  0  0  0
   11.3807   -4.5842   20.2273 He  0  0  0  0  0  0  0  0  0  0  0  0
   11.8409   -0.8374   15.0261 He  0  0  0  0  0  0  0  0  0  0  0  0
    7.8779   -8.5120   17.0575 He  0  0  0  0  0  0  0  0  0  0  0  0
    6.5483   -8.2287   17.3833 He  0  0  0  0  0  0  0  0  0  0  0  0
    4.2398   -8.7246   14.7161 He  0  0  0  0  0  0  0  0  0  0  0  0
    1.3280   -8.3703   13.1023 He  0  0  0  0  0  0  0  0  0  0  0  0
    3.2310   -7.4426   15.4428 He  0  0  0  0  0  0  0  0  0  0  0  0
    5.5602   -8.2843   17.7709 He  0  0  0  0  0  0  0  0  0  0  0  0
    6.8807   -3.2583   17.3724 He  0  0  0  0  0  0  0  0  0  0  0  0
   11.1292   -3.4520   15.7244 He  0  0  0  0  0  0  0  0  0  0  0  0
    5.7251   -7.3059   17.1053 He  0  0  0  0  0  0  0  0  0  0  0  0
  1  2  2  0
  1  4  1  0
  1  8  3  0
  1 10  1  0
  1 12  2  0
  1 13  4  0
  1 14  3  0
  2  8  4  0
  2 10  1  0
  2 11  1  0
  2 15  1  0
  3  7  3  0
  3  8  2  0
  3 11  2  0
  4  5  2  0
  4  9  3  0
  4 15  3  0
  5 11  1  0
  5 16  1  0
  6  7  3  0
  6 14  1  0
  6 16  4  0
  7 11  1  0
  7 12  2  0
  7 13  4  0
  7 16  3  0
  8 10  2  0
  8 11  3  0
  8 12  2  0
  8 15  2  0
  8 16  1  0
  9 12  4  0
  9 13  3  0
  9 14  1  0
  9 15  1  0
 10 14  4  0
 10 15  2  0
 10 16  3  0
 11 12  2  0
 11 13  3  0
 11 14  1  0
 11 15  1  0
 11 16  1  0
 12 14  3  0
 12 16  2  0
 13 16  1  0
 14 15  3  0
 15 16  3  0
M  END
$$$$

 Created by Python create_sdf_string function

 34  6  0  0  0  0  0  0  0  0999 V2000
   11.3698   -5.0456   22.2979 O   0  0  0  0  0  0  0  0  0  0  0  0
   12.1154   -2.9640   13.7916 C   0  0  0  0  0  0  0  0  0  0  0  0
   10.2808   -3.9555   16.5952 C   0  0  0  0  0  0  0  0  0  0  0  0
   10.4793   -4.2073   18.0002 C   0  0  0  0  0  0  0  0  0  0  0  0
    7.2571   -8.7111   15.4652 C   0  0  0  0  0  0  0  0  0  0  0  0
   12.8972   -3.0958   14.1730 O   0  0  0  0  0  0  0  0  0  0  0  0
    2.9822   -7.9534   16.0814 C   0  0  0  0  0  0  0  0  0  0  0  0
    9.2672   -6.9848   18.1000 C   0  0  0  0  0  0  0  0  0  0  0  0
   11.1196   -3.1923   22.1593 C   0  0  0  0  0  0  0  0  0  0  0  0
   11.0665   -4.4042   20.3598 C   0  0  0  0  0  0  0  0  0  0  0  0
    4.0309   -7.5591   16.0619 C   0  0  0  0  0  0  0  0  0  0  0  0
   11.3970   -4.5265   21.9364 C   0  0  0  0  0  0  0  0  0  0  0  0
   12.7848   -2.4701   14.8982 O   0  0  0  0  0  0  0  0  0  0  0  0
   10.8506   -4.2078   18.7488 C   0  0  0  0  0  0  0  0  0  0  0  0
    8.2152   -8.0690   17.0571 C   0  0  0  0  0  0  0  0  0  0  0  0
    6.7512   -8.0193   17.2646 C   0  0  0  0  0  0  0  0  0  0  0  0
    1.3886   -8.7064   15.2205 C   0  0  0  0  0  0  0  0  0  0  0  0
    6.5026   -8.4870   18.1700 C   0  0  0  0  0  0  0  0  0  0  0  0
   10.0383   -5.9979   18.9863 C   0  0  0  0  0  0  0  0  0  0  0  0
   11.3264   -3.3961   16.7610 C   0  0  0  0  0  0  0  0  0  0  0  0
    9.1746   -7.0852   17.9919 C   0  0  0  0  0  0  0  0  0  0  0  0
   10.5241   -4.3444   17.7557 C   0  0  0  0  0  0  0  0  0  0  0  0
    3.9818   -8.4655   15.1264 C   0  0  0  0  0  0  0  0  0  0  0  0
    3.2322   -8.3005   15.2426 C   0  0  0  0  0  0  0  0  0  0  0  0
    1.3314   -8.5511   14.5461 C   0  0  0  0  0  0  0  0  0  0  0  0
    6.4625   -8.3597   15.7225 C   0  0  0  0  0  0  0  0  0  0  0  0
    2.8896   -8.1218   15.6919 C   0  0  0  0  0  0  0  0  0  0  0  0
    5.6423   -7.9724   17.4796 C   0  0  0  0  0  0  0  0  0  0  0  0
   11.1498   -4.0308   20.9160 C   0  0  0  0  0  0  0  0  0  0  0  0
    8.7472   -4.1472   16.0218 O   0  0  0  0  0  0  0  0  0  0  0  0
    8.2334   -7.3942   15.9950 C   0  0  0  0  0  0  0  0  0  0  0  0
   11.5953   -3.4654   15.5002 C   0  0  0  0  0  0  0  0  0  0  0  0
   10.7744   -3.6076   15.5780 C   0  0  0  0  0  0  0  0  0  0  0  0
    5.7403   -7.6302   16.9466 C   0  0  0  0  0  0  0  0  0  0  0  0
  1 12  4  0
  5 26  1  0
  7 27  4  0
  8 21  1  0
 17 25  1  0
 28 34  1  0
M  END
$$$$

 Created by Python create_sdf_string function

 34 83  0  0  0  0  0  0  0  0999 V2000
   13.3296   -3.8912   13.8099 C   0  0  0  0  0  0  0  0  0  0  0  0
    8.3426   -4.0048   16.6759 C   0  0  0  0  0  0  0  0  0  0  0  0
   10.1234   -4.4152   18.3758 N   0  0  0  0  0  0  0  0  0  0  0  0
    9.0628   -8.2721   15.2540 C   0  0  0  0  0  0  0  0  0  0  0  0
   13.5486   -3.2628   15.0646 O   0  0  0  0  0  0  0  0  0  0  0  0
    2.3141   -8.1684   16.6925 C   0  0  0  0  0  0  0  0  0  0  0  0
    8.8418   -7.5564   18.7983 Cl  0  0  0  0  0  0  0  0  0  0  0  0
   11.3503   -6.0865   21.0507 O   0  0  0  0  0  0  0  0  0  0  0  0
    3.8648   -5.9626   14.5624 S   0  0  0  0  0  0  0  0  0  0  0  0
    8.2103   -7.4696   18.1856 F   0  0  0  0  0  0  0  0  0  0  0  0
    5.8141   -8.1827   17.6208 C   0  0  0  0  0  0  0  0  0  0  0  0
    1.2255   -7.1717   16.0980 C   0  0  0  0  0  0  0  0  0  0  0  0
   11.8555   -5.5974   19.6420 C   0  0  0  0  0  0  0  0  0  0  0  0
   12.4492   -3.9306   18.4943 C   0  0  0  0  0  0  0  0  0  0  0  0
    1.5781   -7.6017   15.3042 C   0  0  0  0  0  0  0  0  0  0  0  0
    2.5690   -8.0837   16.5427 P   0  0  0  0  0  0  0  0  0  0  0  0
    5.0119   -5.9181   18.0915 N   0  0  0  0  0  0  0  0  0  0  0  0
   10.3038   -3.5587   21.0210 N   0  0  0  0  0  0  0  0  0  0  0  0
    9.5583   -6.7798   15.2023 F   0  0  0  0  0  0  0  0  0  0  0  0
   11.3236   -1.6608   14.0402 C   0  0  0  0  0  0  0  0  0  0  0  0
    6.1391   -7.5184   16.8998 C   0  0  0  0  0  0  0  0  0  0  0  0
   10.7197   -4.9624   21.1476 He  0  0  0  0  0  0  0  0  0  0  0  0
   10.5625   -3.7305   23.5099 He  0  0  0  0  0  0  0  0  0  0  0  0
   11.1637   -5.1204   21.9471 He  0  0  0  0  0  0  0  0  0  0  0  0
   12.8961   -2.2241   14.7960 He  0  0  0  0  0  0  0  0  0  0  0  0
   10.5545   -4.5090   18.6952 He  0  0  0  0  0  0  0  0  0  0  0  0
    6.2156   -8.6281   17.5292 He  0  0  0  0  0  0  0  0  0  0  0  0
    9.3667   -8.6577   17.1030 He  0  0  0  0  0  0  0  0  0  0  0  0
    9.8722   -4.8961   16.1433 He  0  0  0  0  0  0  0  0  0  0  0  0
    3.0666   -7.7718   15.1429 He  0  0  0  0  0  0  0  0  0  0  0  0
    3.2864   -9.8138   15.6105 He  0  0  0  0  0  0  0  0  0  0  0  0
    7.3985   -8.6136   15.5496 He  0  0  0  0  0  0  0  0  0  0  0  0
    8.3068   -5.7240   16.8322 He  0  0  0  0  0  0  0  0  0  0  0  0
   11.6530   -2.0920   15.7960 He  0  0  0  0  0  0  0  0  0  0  0  0
  1  3  1  0
  1  4  2  0
  1  5  4  0
  1 11  4  0
  1 12  3  0
  1 16  2  0
  1 17  4  0
  1 19  1  0
  1 20  1  0
  2  9  4  0
  2 10  3  0
  2 11  4  0
  3  7  3  0
  3 12  4  0
  3 14  4  0
  3 18  3  0
  4  7  4  0
  4  8  1  0
  4 10  1  0
  4 11  2  0
  4 14  3  0
  4 15  2  0
  5  8  2  0
  5  9  3  0
  5 10  1  0
  5 12  1  0
  5 13  2  0
  5 14  1  0
  5 17  1  0
  5 18  1  0
  5 20  4  0
  5 21  4  0
  6  9  4  0
  6 12  2  0
  6 17  2  0
  6 18  4  0
  6 19  4  0
  6 21  1  0
  7 10  1  0
  7 13  4  0
  7 14  2  0
  7 16  4  0
  7 21  3  0
  8 10  2  0
  8 11  3  0
  8 14  3  0
  8 15  3  0
  8 18  4  0
  8 20  1  0
  8 21  3  0
  9 10  3  0
  9 11  2  0
  9 14  2  0
 10 13  2  0
 10 14  2  0
 10 15  1  0
 10 16  3  0
 10 20  4  0
 11 12  3  0
 11 15  3  0
 11 18  3  0
 11 20  1  0
 12 13  4  0
 12 14  1  0
 12 15  2  0
 12 17  4  0
 12 18  2  0
 12 19  4  0
 12 21  3  0
 13 17  3  0
 13 19  1  0
 13 20  3  0
 14 15  4  0
 14 16  2  0
 14 17  2  0
 14 21  3  0
 15 16  1  0
 15 18  1  0
 15 19  2  0
 16 20  4  0
 16 21  2  0
 17 18  3  0
 18 20  4  0
M  END
$$$$

 Created by Python create_sdf_string function

 34  9  0  0  0  0  0  0  0  0999 V2000
   10.9413   -4.3644   21.3242 C   0  0  0  0  0  0  0  0  0  0  0  0
   12.7590   -3.2746   14.3725 C   0  0  0  0  0  0  0  0  0  0  0  0
    9.4999   -4.3855   16.3656 C   0  0  0  0  0  0  0  0  0  0  0  0
   10.6739   -4.3061   18.0584 C   0  0  0  0  0  0  0  0  0  0  0  0
    8.3376   -8.0273   15.5199 C   0  0  0  0  0  0  0  0  0  0  0  0
   13.0830   -3.2693   15.0023 O   0  0  0  0  0  0  0  0  0  0  0  0
    2.7632   -8.2848   16.3699 C   0  0  0  0  0  0  0  0  0  0  0  0
    8.8034   -7.3854   18.1741 C   0  0  0  0  0  0  0  0  0  0  0  0
   10.9569   -3.7694   22.8903 C   0  0  0  0  0  0  0  0  0  0  0  0
   11.0381   -5.1760   21.1119 C   0  0  0  0  0  0  0  0  0  0  0  0
    3.4880   -6.8861   15.1944 C   0  0  0  0  0  0  0  0  0  0  0  0
   11.2173   -4.7678   21.8746 C   0  0  0  0  0  0  0  0  0  0  0  0
   12.8999   -2.6660   14.8958 C   0  0  0  0  0  0  0  0  0  0  0  0
   10.7355   -4.3339   18.6445 C   0  0  0  0  0  0  0  0  0  0  0  0
    8.2958   -7.2896   17.8431 C   0  0  0  0  0  0  0  0  0  0  0  0
    5.8624   -8.2277   17.3723 C   0  0  0  0  0  0  0  0  0  0  0  0
    1.3161   -7.6142   15.6903 C   0  0  0  0  0  0  0  0  0  0  0  0
    6.2137   -8.2798   17.4604 C   0  0  0  0  0  0  0  0  0  0  0  0
   11.1035   -5.2003   19.7922 C   0  0  0  0  0  0  0  0  0  0  0  0
   11.5274   -3.6120   17.3876 C   0  0  0  0  0  0  0  0  0  0  0  0
    8.7111   -8.1771   17.1594 C   0  0  0  0  0  0  0  0  0  0  0  0
   10.2272   -4.3340   16.0921 C   0  0  0  0  0  0  0  0  0  0  0  0
    2.7779   -7.4437   15.4294 C   0  0  0  0  0  0  0  0  0  0  0  0
    3.1803   -8.8591   16.3938 C   0  0  0  0  0  0  0  0  0  0  0  0
    1.4364   -7.6975   15.4742 C   0  0  0  0  0  0  0  0  0  0  0  0
    7.3320   -8.4202   15.7875 C   0  0  0  0  0  0  0  0  0  0  0  0
    2.9259   -8.3507   16.3869 C   0  0  0  0  0  0  0  0  0  0  0  0
    5.3825   -7.4509   17.7260 O   0  0  0  0  0  0  0  0  0  0  0  0
   10.6483   -3.7107   20.9820 C   0  0  0  0  0  0  0  0  0  0  0  0
    8.9365   -5.6550   16.6502 C   0  0  0  0  0  0  0  0  0  0  0  0
    8.8707   -6.5994   15.7126 F   0  0  0  0  0  0  0  0  0  0  0  0
   12.1882   -3.0602   14.1850 C   0  0  0  0  0  0  0  0  0  0  0  0
   11.8080   -3.3994   16.1572 C   0  0  0  0  0  0  0  0  0  0  0  0
    6.2616   -7.7713   16.7189 C   0  0  0  0  0  0  0  0  0  0  0  0
  3 22  4  0
  4 14  1  0
  4 20  4  0
  5 26  4  0
  7 27  4  0
  8 15  1  0
 11 23  4  0
 17 25  4  0
 20 33  4  0
M  END
$$$$

 Created by Python create_sdf_string function

 34 89  0  0  0  0  0  0  0  0999 V2000
   12.5052   -4.4210   13.4676 S   0  0  0  0  0  0  0  0  0  0  0  0
   10.7078   -4.3627   16.5800 S   0  0  0  0  0  0  0  0  0  0  0  0
    7.7641   -6.7828   15.8961 C   0  0  0  0  0  0  0  0  0  0  0  0
   13.1328   -3.0131   17.0067 S   0  0  0  0  0  0  0  0  0  0  0  0
    7.9627   -7.6529   18.6990 P   0  0  0  0  0  0  0  0  0  0  0  0
   13.1029   -5.2198   23.3956 F   0  0  0  0  0  0  0  0  0  0  0  0
   11.0380   -6.2343   21.7974 O   0  0  0  0  0  0  0  0  0  0  0  0
    4.0312   -6.1249   15.3991 N   0  0  0  0  0  0  0  0  0  0  0  0
   13.2827   -2.9741   14.9067 C   0  0  0  0  0  0  0  0  0  0  0  0
    9.2740   -7.8850   17.5173 C   0  0  0  0  0  0  0  0  0  0  0  0
    1.5215   -8.1713   16.4516 C   0  0  0  0  0  0  0  0  0  0  0  0
    5.4593   -8.5986   15.4110 O   0  0  0  0  0  0  0  0  0  0  0  0
   11.7170   -4.7469   19.7480 F   0  0  0  0  0  0  0  0  0  0  0  0
    9.1241   -8.2376   15.8066 F   0  0  0  0  0  0  0  0  0  0  0  0
   10.2604   -4.4780   16.6127 S   0  0  0  0  0  0  0  0  0  0  0  0
    1.6591  -10.0354   16.4210 F   0  0  0  0  0  0  0  0  0  0  0  0
    2.6738   -5.9052   16.1064 F   0  0  0  0  0  0  0  0  0  0  0  0
    6.2080   -8.7219   17.4291 C   0  0  0  0  0  0  0  0  0  0  0  0
    4.1648   -8.8564   15.4260 Cl  0  0  0  0  0  0  0  0  0  0  0  0
    8.7865   -3.9066   19.2663 O   0  0  0  0  0  0  0  0  0  0  0  0
   10.3454   -7.4219   16.1211 C   0  0  0  0  0  0  0  0  0  0  0  0
    7.1265   -5.7974   16.5729 O   0  0  0  0  0  0  0  0  0  0  0  0
   11.7822   -4.0175   15.4091 N   0  0  0  0  0  0  0  0  0  0  0  0
    4.5807   -7.5809   15.6370 C   0  0  0  0  0  0  0  0  0  0  0  0
   11.2235   -4.8533   22.1697 He  0  0  0  0  0  0  0  0  0  0  0  0
   10.3527   -4.1021   19.0644 He  0  0  0  0  0  0  0  0  0  0  0  0
    2.7923   -7.6161   15.8103 He  0  0  0  0  0  0  0  0  0  0  0  0
   10.9874   -5.0308   22.6099 He  0  0  0  0  0  0  0  0  0  0  0  0
    9.6896   -3.7690   18.8187 He  0  0  0  0  0  0  0  0  0  0  0  0
    6.6056   -8.1421   18.3385 He  0  0  0  0  0  0  0  0  0  0  0  0
   11.8399   -2.7286   16.4032 He  0  0  0  0  0  0  0  0  0  0  0  0
    3.2587   -8.2136   13.8881 He  0  0  0  0  0  0  0  0  0  0  0  0
    4.2602   -7.6590   17.4171 He  0  0  0  0  0  0  0  0  0  0  0  0
   12.1252   -1.5688   13.3931 He  0  0  0  0  0  0  0  0  0  0  0  0
  1  4  1  0
  1  5  3  0
  1 14  3  0
  1 15  2  0
  1 16  3  0
  1 19  3  0
  1 21  1  0
  2  5  2  0
  2 10  2  0
  2 15  1  0
  2 18  2  0
  2 21  2  0
  2 22  1  0
  3 13  4  0
  3 14  3  0
  3 18  4  0
  3 21  2  0
  3 23  2  0
  3 24  3  0
  4  6  2  0
  4  9  1  0
  4 12  2  0
  4 13  2  0
  4 15  2  0
  4 17  2  0
  4 18  4  0
  4 21  3  0
  4 22  1  0
  5  7  4  0
  5 10  1  0
  5 19  1  0
  5 21  4  0
  6  9  1  0
  6 16  4  0
  6 17  3  0
  6 22  3  0
  7  8  4  0
  7  9  3  0
  7 11  3  0
  7 12  4  0
  7 15  2  0
  7 19  4  0
  7 21  4  0
  7 23  4  0
  8 12  1  0
  8 13  1  0
  8 14  2  0
  8 18  1  0
  8 21  4  0
  8 24  4  0
  9 12  1  0
  9 13  4  0
  9 16  2  0
  9 18  3  0
  9 20  2  0
  9 22  1  0
  9 24  4  0
 10 13  4  0
 10 14  3  0
 10 17  2  0
 10 24  2  0
 11 12  4  0
 11 14  4  0
 11 18  2  0
 11 23  3  0
 12 15  1  0
 12 17  4  0
 12 18  2  0
 13 14  3  0
 13 18  2  0
 13 23  3  0
 14 18  3  0
 14 21  1  0
 14 23  4  0
 15 18  4  0
 15 23  1  0
 16 17  4  0
 16 24  4  0
 17 20  4  0
 17 21  3  0
 17 22  2  0
 17 24  1  0
 18 19  1  0
 18 20  3  0
 18 22  2  0
 19 22  3  0
 22 23  3  0
 22 24  4  0
 23 24  1  0
M  END
$$$$

 Created by Python create_sdf_string function

 34 12  0  0  0  0  0  0  0  0999 V2000
   11.1960   -4.2950   21.7640 C   0  0  0  0  0  0  0  0  0  0  0  0
   12.5040   -3.4847   13.8956 O   0  0  0  0  0  0  0  0  0  0  0  0
   10.3653   -4.2956   16.9764 C   0  0  0  0  0  0  0  0  0  0  0  0
   10.6599   -4.4555   19.3944 C   0  0  0  0  0  0  0  0  0  0  0  0
    7.8772   -6.9540   16.1300 C   0  0  0  0  0  0  0  0  0  0  0  0
   12.4267   -3.1086   16.0050 C   0  0  0  0  0  0  0  0  0  0  0  0
    2.4808   -8.2993   16.1123 C   0  0  0  0  0  0  0  0  0  0  0  0
    8.4826   -7.4603   18.0130 C   0  0  0  0  0  0  0  0  0  0  0  0
   12.1677   -4.7546   23.0177 O   0  0  0  0  0  0  0  0  0  0  0  0
   11.2413   -5.1394   21.5156 C   0  0  0  0  0  0  0  0  0  0  0  0
    4.3001   -7.0066   15.3695 C   0  0  0  0  0  0  0  0  0  0  0  0
   11.3456   -4.4855   22.2355 C   0  0  0  0  0  0  0  0  0  0  0  0
   13.1382   -2.7794   14.7989 C   0  0  0  0  0  0  0  0  0  0  0  0
   10.3189   -4.4425   18.9838 C   0  0  0  0  0  0  0  0  0  0  0  0
    8.8478   -7.6503   17.6326 C   0  0  0  0  0  0  0  0  0  0  0  0
    6.7189   -8.0771   17.7513 C   0  0  0  0  0  0  0  0  0  0  0  0
    1.7978   -8.6613   16.2635 C   0  0  0  0  0  0  0  0  0  0  0  0
    5.7943   -8.4910   15.9039 C   0  0  0  0  0  0  0  0  0  0  0  0
   11.4914   -4.6917   20.1855 C   0  0  0  0  0  0  0  0  0  0  0  0
   11.9459   -3.2483   16.0975 C   0  0  0  0  0  0  0  0  0  0  0  0
    8.5460   -7.9761   15.9649 C   0  0  0  0  0  0  0  0  0  0  0  0
   10.2161   -4.4181   16.6915 C   0  0  0  0  0  0  0  0  0  0  0  0
    3.0531   -8.1155   15.1112 C   0  0  0  0  0  0  0  0  0  0  0  0
    1.5610   -9.4019   16.4588 C   0  0  0  0  0  0  0  0  0  0  0  0
    2.7340   -6.8072   15.4111 C   0  0  0  0  0  0  0  0  0  0  0  0
    6.4431   -8.1884   16.9632 C   0  0  0  0  0  0  0  0  0  0  0  0
    4.2149   -8.6882   16.2236 C   0  0  0  0  0  0  0  0  0  0  0  0
    4.4780   -8.3970   16.9267 C   0  0  0  0  0  0  0  0  0  0  0  0
    9.9356   -4.4419   19.2767 C   0  0  0  0  0  0  0  0  0  0  0  0
    9.1264   -6.4168   16.5929 C   0  0  0  0  0  0  0  0  0  0  0  0
    7.4698   -5.4667   15.8307 O   0  0  0  0  0  0  0  0  0  0  0  0
   12.8939   -2.6082   13.7161 O   0  0  0  0  0  0  0  0  0  0  0  0
   11.4997   -3.7931   15.4746 C   0  0  0  0  0  0  0  0  0  0  0  0
    4.3469   -7.6220   15.7263 C   0  0  0  0  0  0  0  0  0  0  0  0
  1 12  4  0
  3 22  1  0
  4 29  4  0
  5 21  1  0
  6 20  4  0
  7 17  4  0
  8 15  1  0
  9 12  1  0
 11 34  4  0
 14 29  4  0
 16 26  1  0
 17 24  1  0
M  END
$$$$

 Created by Python create_sdf_string function

 34 79  0  0  0  0  0  0  0  0999 V2000
   10.9606   -4.8216   21.8624 C   0  0  0  0  0  0  0  0  0  0  0  0
   12.6002   -3.7699   13.4669 O   0  0  0  0  0  0  0  0  0  0  0  0
   11.7373   -4.8568   19.6606 C   0  0  0  0  0  0  0  0  0  0  0  0
   12.6416   -2.9152   16.0788 P   0  0  0  0  0  0  0  0  0  0  0  0
    1.1888   -8.1269   16.3457 C   0  0  0  0  0  0  0  0  0  0  0  0
    7.9857   -6.6836   16.7978 C   0  0  0  0  0  0  0  0  0  0  0  0
   11.5099   -4.8311   23.2385 O   0  0  0  0  0  0  0  0  0  0  0  0
   11.4269   -3.4937   19.0417 F   0  0  0  0  0  0  0  0  0  0  0  0
    9.1303   -6.7887   17.2949 C   0  0  0  0  0  0  0  0  0  0  0  0
    7.6488   -8.5471   15.8834 C   0  0  0  0  0  0  0  0  0  0  0  0
   12.2382   -3.9318   21.4511 C   0  0  0  0  0  0  0  0  0  0  0  0
    9.6779   -7.7121   15.2292 F   0  0  0  0  0  0  0  0  0  0  0  0
    2.9307   -9.3090   15.3485 F   0  0  0  0  0  0  0  0  0  0  0  0
    0.8366   -8.7316   16.2403 C   0  0  0  0  0  0  0  0  0  0  0  0
    2.2905   -6.7355   16.3086 N   0  0  0  0  0  0  0  0  0  0  0  0
    6.9033   -9.2488   14.6946 C   0  0  0  0  0  0  0  0  0  0  0  0
    4.7441   -9.4429   16.4604 B   0  0  0  0  0  0  0  0  0  0  0  0
    9.0607   -4.3662   18.7861 Cl  0  0  0  0  0  0  0  0  0  0  0  0
    7.2316   -4.7950   16.8713 O   0  0  0  0  0  0  0  0  0  0  0  0
   11.8899   -2.6032   14.5173 O   0  0  0  0  0  0  0  0  0  0  0  0
    4.4827   -7.8810   15.0008 C   0  0  0  0  0  0  0  0  0  0  0  0
    9.1586   -3.1825   16.1084 He  0  0  0  0  0  0  0  0  0  0  0  0
    7.6141   -7.3245   15.0979 He  0  0  0  0  0  0  0  0  0  0  0  0
   11.7046   -4.9177   20.8456 He  0  0  0  0  0  0  0  0  0  0  0  0
    5.6866   -6.3445   17.0741 He  0  0  0  0  0  0  0  0  0  0  0  0
   11.3537   -4.1071   21.8044 He  0  0  0  0  0  0  0  0  0  0  0  0
   14.0446   -3.8902   14.5726 He  0  0  0  0  0  0  0  0  0  0  0  0
    6.0329   -9.5600   17.3977 He  0  0  0  0  0  0  0  0  0  0  0  0
    0.9830   -7.8676   16.2485 He  0  0  0  0  0  0  0  0  0  0  0  0
   11.8346   -2.7639   16.4623 He  0  0  0  0  0  0  0  0  0  0  0  0
   10.3963   -4.9584   17.8301 He  0  0  0  0  0  0  0  0  0  0  0  0
    5.0267   -9.5888   17.3099 He  0  0  0  0  0  0  0  0  0  0  0  0
    9.9537   -6.0457   17.4157 He  0  0  0  0  0  0  0  0  0  0  0  0
   11.1386   -2.8027   14.7794 He  0  0  0  0  0  0  0  0  0  0  0  0
  1  2  3  0
  1  4  4  0
  1  5  4  0
  1  8  4  0
  1 16  3  0
  1 18  1  0
  1 20  3  0
  2  5  2  0
  2  6  4  0
  2  7  1  0
  2 10  2  0
  2 13  1  0
  2 17  4  0
  2 18  4  0
  2 21  4  0
  3  4  4  0
  3  5  3  0
  3  7  4  0
  3  8  2  0
  3  9  3  0
  3 12  2  0
  3 18  3  0
  3 20  3  0
  4  6  3  0
  4  8  2  0
  4 13  4  0
  4 17  1  0
  4 18  2  0
  4 19  2  0
  4 20  3  0
  4 21  1  0
  5  6  2  0
  5 10  2  0
  5 13  4  0
  5 17  2  0
  5 19  4  0
  5 21  1  0
  6  7  3  0
  6  9  1  0
  6 10  1  0
  6 14  4  0
  6 16  4  0
  6 18  1  0
  7  8  2  0
  7  9  2  0
  7 13  2  0
  7 14  1  0
  7 21  3  0
  8 11  4  0
  8 13  4  0
  9 12  3  0
  9 14  2  0
  9 15  1  0
  9 17  4  0
 10 14  3  0
 10 16  4  0
 10 18  3  0
 10 20  1  0
 11 12  2  0
 11 15  3  0
 11 17  2  0
 12 13  4  0
 12 14  2  0
 12 15  4  0
 12 19  4  0
 12 20  1  0
 13 16  1  0
 13 17  1  0
 13 21  3  0
 14 15  4  0
 14 18  3  0
 15 16  2  0
 15 17  2  0
 15 21  3  0
 16 18  4  0
 16 21  1  0
 18 20  3  0
 18 21  3  0
 20 21  3  0
M  END
$$$$

 Created by Python create_sdf_string function

 34  5  0  0  0  0  0  0  0  0999 V2000
   11.0744   -4.4308   21.6387 C   0  0  0  0  0  0  0  0  0  0  0  0
   12.6721   -3.2679   13.8309 O   0  0  0  0  0  0  0  0  0  0  0  0
    9.8754   -4.0536   16.1860 C   0  0  0  0  0  0  0  0  0  0  0  0
   11.3398   -4.5269   19.7304 C   0  0  0  0  0  0  0  0  0  0  0  0
    7.6898   -7.5329   15.7711 C   0  0  0  0  0  0  0  0  0  0  0  0
   12.3038   -3.3240   15.8134 C   0  0  0  0  0  0  0  0  0  0  0  0
    1.5321   -8.3320   16.1192 C   0  0  0  0  0  0  0  0  0  0  0  0
    8.2362   -6.7956   16.9209 C   0  0  0  0  0  0  0  0  0  0  0  0
   11.5278   -4.3673   23.2069 O   0  0  0  0  0  0  0  0  0  0  0  0
   11.4152   -4.7023   20.6976 C   0  0  0  0  0  0  0  0  0  0  0  0
    5.7067   -7.3467   16.7730 C   0  0  0  0  0  0  0  0  0  0  0  0
   11.3513   -4.0813   22.0561 C   0  0  0  0  0  0  0  0  0  0  0  0
   13.4256   -3.2741   14.8182 O   0  0  0  0  0  0  0  0  0  0  0  0
   11.2700   -3.9788   19.1237 C   0  0  0  0  0  0  0  0  0  0  0  0
    8.8958   -6.6273   17.4553 C   0  0  0  0  0  0  0  0  0  0  0  0
    5.8591   -8.8162   17.3181 C   0  0  0  0  0  0  0  0  0  0  0  0
    1.1253   -8.0360   16.1274 C   0  0  0  0  0  0  0  0  0  0  0  0
    7.4999   -8.3206   15.9822 C   0  0  0  0  0  0  0  0  0  0  0  0
   11.9030   -3.9281   21.5303 C   0  0  0  0  0  0  0  0  0  0  0  0
   11.6298   -3.4354   16.5643 C   0  0  0  0  0  0  0  0  0  0  0  0
    8.6316   -7.6651   15.6216 C   0  0  0  0  0  0  0  0  0  0  0  0
   10.3609   -4.7005   17.7772 C   0  0  0  0  0  0  0  0  0  0  0  0
    2.6799   -8.9755   15.9502 C   0  0  0  0  0  0  0  0  0  0  0  0
    1.1259   -8.6142   16.1568 C   0  0  0  0  0  0  0  0  0  0  0  0
    2.3768   -7.1323   15.9984 C   0  0  0  0  0  0  0  0  0  0  0  0
    6.6738   -8.9536   15.6732 C   0  0  0  0  0  0  0  0  0  0  0  0
    4.2351   -8.8336   16.4485 C   0  0  0  0  0  0  0  0  0  0  0  0
    4.9074   -8.8183   17.1061 C   0  0  0  0  0  0  0  0  0  0  0  0
    9.9676   -4.9989   18.8112 C   0  0  0  0  0  0  0  0  0  0  0  0
    9.6944   -5.6943   17.6556 C   0  0  0  0  0  0  0  0  0  0  0  0
    7.7317   -5.2658   15.9715 O   0  0  0  0  0  0  0  0  0  0  0  0
   12.4298   -3.1277   14.6200 C   0  0  0  0  0  0  0  0  0  0  0  0
   11.5746   -3.5538   15.2704 C   0  0  0  0  0  0  0  0  0  0  0  0
    4.0380   -8.0648   16.0728 C   0  0  0  0  0  0  0  0  0  0  0  0
  1 12  4  0
  4 10  4  0
  7 23  4  0
  8 15  1  0
 18 26  4  0
M  END
$$$$

 Created by Python create_sdf_string function

 34 42  0  0  0  0  0  0  0  0999 V2000
   10.5160   -3.2267   20.4499 N   0  0  0  0  0  0  0  0  0  0  0  0
   10.2873   -3.6538   16.7055 F   0  0  0  0  0  0  0  0  0  0  0  0
   10.1522   -4.7946   19.2803 C   0  0  0  0  0  0  0  0  0  0  0  0
   12.8089   -2.4922   16.2952 C   0  0  0  0  0  0  0  0  0  0  0  0
    8.2597   -6.1732   16.8186 C   0  0  0  0  0  0  0  0  0  0  0  0
   10.9589   -4.0756   20.9289 C   0  0  0  0  0  0  0  0  0  0  0  0
   10.3031   -4.7033   22.3963 F   0  0  0  0  0  0  0  0  0  0  0  0
   12.7997   -2.3126   14.2552 F   0  0  0  0  0  0  0  0  0  0  0  0
   10.1894   -3.4188   18.5582 C   0  0  0  0  0  0  0  0  0  0  0  0
    5.0406   -8.1950   17.5301 Se  0  0  0  0  0  0  0  0  0  0  0  0
    8.6962   -6.4080   14.8842 C   0  0  0  0  0  0  0  0  0  0  0  0
    2.1261   -7.7372   16.7508 F   0  0  0  0  0  0  0  0  0  0  0  0
    0.8634   -8.6070   16.5095 C   0  0  0  0  0  0  0  0  0  0  0  0
    5.9150   -8.1069   18.2547 Cl  0  0  0  0  0  0  0  0  0  0  0  0
    8.1600   -6.5696   16.7049 F   0  0  0  0  0  0  0  0  0  0  0  0
    3.5732   -8.2237   16.4789 F   0  0  0  0  0  0  0  0  0  0  0  0
   12.2797   -2.5980   14.6823 He  0  0  0  0  0  0  0  0  0  0  0  0
    8.8673   -6.7531   14.4808 He  0  0  0  0  0  0  0  0  0  0  0  0
    2.3384   -7.3150   16.0901 He  0  0  0  0  0  0  0  0  0  0  0  0
   10.3026   -5.0606   24.6362 He  0  0  0  0  0  0  0  0  0  0  0  0
    5.5455   -7.0940   18.3601 He  0  0  0  0  0  0  0  0  0  0  0  0
    9.7814   -7.4219   16.2320 He  0  0  0  0  0  0  0  0  0  0  0  0
    1.1028   -7.9464   15.9146 He  0  0  0  0  0  0  0  0  0  0  0  0
    8.0140   -8.2397   15.3814 He  0  0  0  0  0  0  0  0  0  0  0  0
   11.9621   -3.9702   22.4206 He  0  0  0  0  0  0  0  0  0  0  0  0
   11.4527   -2.7074   16.9948 He  0  0  0  0  0  0  0  0  0  0  0  0
    9.8934   -3.8982   17.5774 He  0  0  0  0  0  0  0  0  0  0  0  0
    1.0621   -6.8415   15.7484 He  0  0  0  0  0  0  0  0  0  0  0  0
    6.3041   -9.3241   16.2052 He  0  0  0  0  0  0  0  0  0  0  0  0
    2.7380   -7.1868   17.9142 He  0  0  0  0  0  0  0  0  0  0  0  0
   10.4005   -3.9327   17.9749 He  0  0  0  0  0  0  0  0  0  0  0  0
    9.6522   -4.1198   18.5567 He  0  0  0  0  0  0  0  0  0  0  0  0
   12.1817   -2.2724   14.1558 He  0  0  0  0  0  0  0  0  0  0  0  0
   11.3793   -3.6366   16.5729 He  0  0  0  0  0  0  0  0  0  0  0  0
  1  8  1  0
  1  9  4  0
  1 10  3  0
  1 12  2  0
  1 13  1  0
  1 16  1  0
  2  3  1  0
  2  7  1  0
  2  8  4  0
  2 13  2  0
  3  5  2  0
  3  7  2  0
  3 14  4  0
  3 16  3  0
  4  7  2  0
  4 12  1  0
  4 13  1  0
  4 14  3  0
  4 15  4  0
  5  8  2  0
  5 11  4  0
  5 13  1  0
  6  7  2  0
  6  9  3  0
  6 12  3  0
  6 13  4  0
  6 15  4  0
  7  8  1  0
  7  9  4  0
  7 11  4  0
  7 12  4  0
  7 13  3  0
  7 16  1  0
  8 10  4  0
  8 11  2  0
  9 13  2  0
 11 15  1  0
 12 13  2  0
 12 14  3  0
 13 14  4  0
 13 16  1  0
 14 16  2  0
M  END
$$$$

 Created by Python create_sdf_string function

 34 11  0  0  0  0  0  0  0  0999 V2000
   11.0578   -3.5535   20.7138 C   0  0  0  0  0  0  0  0  0  0  0  0
   12.7463   -3.1259   14.3255 N   0  0  0  0  0  0  0  0  0  0  0  0
   10.6679   -3.9668   16.3743 C   0  0  0  0  0  0  0  0  0  0  0  0
   10.4653   -4.8868   19.7401 C   0  0  0  0  0  0  0  0  0  0  0  0
    8.5503   -7.6091   15.2103 C   0  0  0  0  0  0  0  0  0  0  0  0
   12.5707   -2.8179   15.6756 C   0  0  0  0  0  0  0  0  0  0  0  0
    2.4575   -7.5216   16.0087 C   0  0  0  0  0  0  0  0  0  0  0  0
    8.5227   -6.2042   16.8647 C   0  0  0  0  0  0  0  0  0  0  0  0
   11.0778   -4.2398   23.7580 C   0  0  0  0  0  0  0  0  0  0  0  0
   10.9889   -4.4608   21.3647 C   0  0  0  0  0  0  0  0  0  0  0  0
    5.6223   -7.7545   17.8595 C   0  0  0  0  0  0  0  0  0  0  0  0
   10.9585   -4.2514   22.4017 C   0  0  0  0  0  0  0  0  0  0  0  0
   13.0947   -2.6883   13.9731 O   0  0  0  0  0  0  0  0  0  0  0  0
   10.8157   -3.7777   19.1151 C   0  0  0  0  0  0  0  0  0  0  0  0
    9.0162   -7.3333   16.8568 C   0  0  0  0  0  0  0  0  0  0  0  0
    5.1898   -8.1631   17.3467 C   0  0  0  0  0  0  0  0  0  0  0  0
    0.8577   -7.9689   16.0560 C   0  0  0  0  0  0  0  0  0  0  0  0
    7.7471   -8.2921   15.4793 C   0  0  0  0  0  0  0  0  0  0  0  0
   11.4359   -3.8671   22.4546 C   0  0  0  0  0  0  0  0  0  0  0  0
   11.6506   -2.9599   16.9528 C   0  0  0  0  0  0  0  0  0  0  0  0
    8.6184   -6.6242   15.8404 C   0  0  0  0  0  0  0  0  0  0  0  0
   10.1182   -4.4460   17.0469 C   0  0  0  0  0  0  0  0  0  0  0  0
    2.2920   -8.1894   16.3478 C   0  0  0  0  0  0  0  0  0  0  0  0
    1.0729   -8.7156   16.3037 C   0  0  0  0  0  0  0  0  0  0  0  0
    1.1097   -7.3581   15.6739 C   0  0  0  0  0  0  0  0  0  0  0  0
    6.6143   -8.5004   16.1100 C   0  0  0  0  0  0  0  0  0  0  0  0
    2.6183   -7.8514   16.5387 C   0  0  0  0  0  0  0  0  0  0  0  0
    5.7525   -8.0191   17.8570 C   0  0  0  0  0  0  0  0  0  0  0  0
   10.7334   -3.9757   17.9844 C   0  0  0  0  0  0  0  0  0  0  0  0
   10.1771   -4.6109   18.8910 C   0  0  0  0  0  0  0  0  0  0  0  0
    8.2450   -6.6783   16.8564 C   0  0  0  0  0  0  0  0  0  0  0  0
   12.8511   -2.9461   14.2391 C   0  0  0  0  0  0  0  0  0  0  0  0
   11.5690   -3.6521   15.9890 C   0  0  0  0  0  0  0  0  0  0  0  0
    3.8979   -8.3024   16.6799 C   0  0  0  0  0  0  0  0  0  0  0  0
  1 14  4  0
  2 32  1  0
  3 33  4  0
  5 18  4  0
  7 25  4  0
  8 21  4  0
 11 28  4  0
 13 32  2  0
 17 24  4  0
 17 25  4  0
 18 26  4  0
M  END
$$$$

 Created by Python create_sdf_string function

 34 42  0  0  0  0  0  0  0  0999 V2000
   11.1955   -2.6856   16.7810 C   0  0  0  0  0  0  0  0  0  0  0  0
   10.7512   -5.3787   18.9725 C   0  0  0  0  0  0  0  0  0  0  0  0
   11.8584   -3.3297   14.6984 Cl  0  0  0  0  0  0  0  0  0  0  0  0
    0.3098   -8.0645   15.5129 C   0  0  0  0  0  0  0  0  0  0  0  0
    8.2417   -8.5856   16.6205 C   0  0  0  0  0  0  0  0  0  0  0  0
   10.7734   -4.3283   24.5378 O   0  0  0  0  0  0  0  0  0  0  0  0
    4.8284   -8.8484   16.8044 F   0  0  0  0  0  0  0  0  0  0  0  0
   10.6834   -2.9061   21.1675 C   0  0  0  0  0  0  0  0  0  0  0  0
   12.4779   -1.4021   14.7808 N   0  0  0  0  0  0  0  0  0  0  0  0
    9.7872   -4.1715   22.9591 C   0  0  0  0  0  0  0  0  0  0  0  0
   12.1170   -3.0535   18.9312 P   0  0  0  0  0  0  0  0  0  0  0  0
    8.8191   -6.9916   16.2261 C   0  0  0  0  0  0  0  0  0  0  0  0
   11.3661   -2.1926   16.6187 C   0  0  0  0  0  0  0  0  0  0  0  0
    2.9448   -7.7853   16.8102 C   0  0  0  0  0  0  0  0  0  0  0  0
   -0.3925   -7.5231   15.5775 S   0  0  0  0  0  0  0  0  0  0  0  0
   11.9807   -2.8376   20.5311 He  0  0  0  0  0  0  0  0  0  0  0  0
   13.3860   -2.5961   14.9516 He  0  0  0  0  0  0  0  0  0  0  0  0
    9.6618   -7.4143   15.7187 He  0  0  0  0  0  0  0  0  0  0  0  0
   11.4561   -3.3149   19.8596 He  0  0  0  0  0  0  0  0  0  0  0  0
   11.0199   -3.8285   19.5221 He  0  0  0  0  0  0  0  0  0  0  0  0
    9.2299   -6.8931   15.8604 He  0  0  0  0  0  0  0  0  0  0  0  0
    6.8315   -8.6223   15.7036 He  0  0  0  0  0  0  0  0  0  0  0  0
    0.6250   -8.8668   14.8468 He  0  0  0  0  0  0  0  0  0  0  0  0
    7.3123   -7.3078   14.9926 He  0  0  0  0  0  0  0  0  0  0  0  0
    0.8551   -7.3389   15.6134 He  0  0  0  0  0  0  0  0  0  0  0  0
    7.4921   -7.7302   16.6379 He  0  0  0  0  0  0  0  0  0  0  0  0
    2.5237   -9.0464   17.3377 He  0  0  0  0  0  0  0  0  0  0  0  0
    6.4325   -7.1203   17.3464 He  0  0  0  0  0  0  0  0  0  0  0  0
   11.9134   -4.1298   17.8108 He  0  0  0  0  0  0  0  0  0  0  0  0
   10.4076   -4.5236   18.3464 He  0  0  0  0  0  0  0  0  0  0  0  0
    7.6640   -7.7019   16.6409 He  0  0  0  0  0  0  0  0  0  0  0  0
   13.4817   -3.1137   13.4140 He  0  0  0  0  0  0  0  0  0  0  0  0
   13.0989   -3.7241   15.8794 He  0  0  0  0  0  0  0  0  0  0  0  0
    2.6372   -7.8666   15.8301 He  0  0  0  0  0  0  0  0  0  0  0  0
  1  2  4  0
  1  3  2  0
  1  5  2  0
  1  6  3  0
  1  8  1  0
  1  9  4  0
  1 11  2  0
  1 12  3  0
  2  8  2  0
  2  9  3  0
  2 10  2  0
  2 12  3  0
  3  5  4  0
  3  6  2  0
  3  7  1  0
  3 12  4  0
  3 13  3  0
  3 14  3  0
  4  5  3  0
  4  8  4  0
  4  9  1  0
  5  7  4  0
  5  8  1  0
  5 13  4  0
  6  7  3  0
  6 13  1  0
  6 15  2  0
  7 13  2  0
  8 11  1  0
  8 14  2  0
  8 15  4  0
  9 10  2  0
  9 12  2  0
  9 14  3  0
 10 11  1  0
 10 12  3  0
 10 15  1  0
 11 13  1  0
 11 14  1  0
 11 15  1  0
 12 14  4  0
 14 15  4  0
M  END
$$$$

 Created by Python create_sdf_string function

 34 14  0  0  0  0  0  0  0  0999 V2000
   11.6257   -3.2441   21.1283 C   0  0  0  0  0  0  0  0  0  0  0  0
   13.2061   -2.5939   14.5847 C   0  0  0  0  0  0  0  0  0  0  0  0
   11.7041   -3.2449   16.6242 C   0  0  0  0  0  0  0  0  0  0  0  0
   10.4451   -5.3484   18.8801 C   0  0  0  0  0  0  0  0  0  0  0  0
    8.9870   -6.7557   16.2918 C   0  0  0  0  0  0  0  0  0  0  0  0
   12.2037   -3.4312   15.0557 C   0  0  0  0  0  0  0  0  0  0  0  0
    0.8721   -8.0324   15.8123 C   0  0  0  0  0  0  0  0  0  0  0  0
    8.0498   -8.0492   16.7750 C   0  0  0  0  0  0  0  0  0  0  0  0
   10.9131   -3.7574   23.5149 O   0  0  0  0  0  0  0  0  0  0  0  0
   11.2387   -3.8531   19.9809 C   0  0  0  0  0  0  0  0  0  0  0  0
    4.5690   -8.3018   16.7113 C   0  0  0  0  0  0  0  0  0  0  0  0
   10.7842   -3.6123   21.6909 C   0  0  0  0  0  0  0  0  0  0  0  0
   13.1440   -2.0281   15.0486 N   0  0  0  0  0  0  0  0  0  0  0  0
   10.9351   -4.0558   19.9638 C   0  0  0  0  0  0  0  0  0  0  0  0
    9.2336   -6.1028   16.6236 C   0  0  0  0  0  0  0  0  0  0  0  0
    5.7749   -8.3465   15.8225 C   0  0  0  0  0  0  0  0  0  0  0  0
    0.6876   -8.6148   15.2625 C   0  0  0  0  0  0  0  0  0  0  0  0
    6.9337   -7.5610   15.6934 C   0  0  0  0  0  0  0  0  0  0  0  0
   10.8487   -3.7554   22.3190 C   0  0  0  0  0  0  0  0  0  0  0  0
   11.2435   -3.3590   19.3388 C   0  0  0  0  0  0  0  0  0  0  0  0
    8.7814   -6.6285   16.8925 C   0  0  0  0  0  0  0  0  0  0  0  0
   11.6637   -3.1345   16.7948 C   0  0  0  0  0  0  0  0  0  0  0  0
    2.6217   -7.7590   15.9773 C   0  0  0  0  0  0  0  0  0  0  0  0
    0.1125   -8.0264   15.4871 C   0  0  0  0  0  0  0  0  0  0  0  0
    1.1761   -7.6232   15.5287 C   0  0  0  0  0  0  0  0  0  0  0  0
    6.9523   -7.5818   17.0524 C   0  0  0  0  0  0  0  0  0  0  0  0
    2.7095   -8.8418   16.4583 C   0  0  0  0  0  0  0  0  0  0  0  0
    6.0815   -7.5833   17.3990 C   0  0  0  0  0  0  0  0  0  0  0  0
   11.1928   -4.0227   17.6142 C   0  0  0  0  0  0  0  0  0  0  0  0
   10.2919   -4.7416   17.9752 C   0  0  0  0  0  0  0  0  0  0  0  0
    7.9207   -7.6362   16.8958 C   0  0  0  0  0  0  0  0  0  0  0  0
   13.4056   -2.9338   13.6506 C   0  0  0  0  0  0  0  0  0  0  0  0
   12.8119   -3.6318   15.4443 C   0  0  0  0  0  0  0  0  0  0  0  0
    2.9020   -8.3393   16.1454 C   0  0  0  0  0  0  0  0  0  0  0  0
  2 13  4  0
  2 32  1  0
  3 22  4  0
  6 33  4  0
  7 25  4  0
  8 31  1  0
  9 19  1  0
 12 19  1  0
 14 20  4  0
 17 24  4  0
 22 29  4  0
 23 34  4  0
 26 28  1  0
 27 34  1  0
M  END
$$$$

 Created by Python create_sdf_string function

 34103  0  0  0  0  0  0  0  0999 V2000
   13.4563   -2.0886   20.8533 C   0  0  0  0  0  0  0  0  0  0  0  0
   10.7057   -2.5442   17.7107 C   0  0  0  0  0  0  0  0  0  0  0  0
   11.4185   -5.2621   19.2036 S   0  0  0  0  0  0  0  0  0  0  0  0
    8.5952   -6.0304   17.4792 C   0  0  0  0  0  0  0  0  0  0  0  0
    0.9033   -9.3413   16.2169 O   0  0  0  0  0  0  0  0  0  0  0  0
    9.2254   -6.7541   17.1169 C   0  0  0  0  0  0  0  0  0  0  0  0
   10.9738   -4.7951   19.6225 Cl  0  0  0  0  0  0  0  0  0  0  0  0
    4.8322   -9.0064   17.3983 N   0  0  0  0  0  0  0  0  0  0  0  0
   13.5090   -1.6276   12.9265 F   0  0  0  0  0  0  0  0  0  0  0  0
   10.4450   -3.7966   19.7787 F   0  0  0  0  0  0  0  0  0  0  0  0
    9.5385   -5.5000   15.8378 O   0  0  0  0  0  0  0  0  0  0  0  0
    4.9410   -7.9214   16.4815 P   0  0  0  0  0  0  0  0  0  0  0  0
    1.0096   -8.5259   16.2827 C   0  0  0  0  0  0  0  0  0  0  0  0
   10.8413   -3.4747   21.5857 C   0  0  0  0  0  0  0  0  0  0  0  0
   11.5244   -3.3367   18.2381 S   0  0  0  0  0  0  0  0  0  0  0  0
    7.2920   -5.6529   16.0369 C   0  0  0  0  0  0  0  0  0  0  0  0
    3.5558   -7.6199   15.3282 N   0  0  0  0  0  0  0  0  0  0  0  0
    0.4953   -7.3778   15.8005 F   0  0  0  0  0  0  0  0  0  0  0  0
    9.9192   -3.8489   15.9079 C   0  0  0  0  0  0  0  0  0  0  0  0
   10.1007   -4.1936   17.6676 N   0  0  0  0  0  0  0  0  0  0  0  0
    8.0125   -6.8770   17.0085 N   0  0  0  0  0  0  0  0  0  0  0  0
   12.1012   -2.6560   15.1792 N   0  0  0  0  0  0  0  0  0  0  0  0
    2.7280   -9.4459   15.8885 C   0  0  0  0  0  0  0  0  0  0  0  0
   12.7014   -3.2922   15.3184 He  0  0  0  0  0  0  0  0  0  0  0  0
   11.2911   -4.7046   15.8208 He  0  0  0  0  0  0  0  0  0  0  0  0
   10.4788   -2.4474   23.7672 He  0  0  0  0  0  0  0  0  0  0  0  0
   11.3287   -1.7046   21.3486 He  0  0  0  0  0  0  0  0  0  0  0  0
    7.1197   -7.5293   14.8356 He  0  0  0  0  0  0  0  0  0  0  0  0
   11.4528   -3.7924   18.5886 He  0  0  0  0  0  0  0  0  0  0  0  0
   -0.7530   -8.0130   15.9885 He  0  0  0  0  0  0  0  0  0  0  0  0
    6.0944   -7.4835   18.2539 He  0  0  0  0  0  0  0  0  0  0  0  0
    2.3224   -9.4169   16.0922 He  0  0  0  0  0  0  0  0  0  0  0  0
    6.0203   -8.3582   18.0416 He  0  0  0  0  0  0  0  0  0  0  0  0
   14.0461   -1.9434   12.9010 He  0  0  0  0  0  0  0  0  0  0  0  0
  1  2  2  0
  1  6  2  0
  1  8  2  0
  1  9  4  0
  1 11  1  0
  1 15  4  0
  1 16  2  0
  1 18  2  0
  1 22  1  0
  2  3  2  0
  2  4  3  0
  2  8  1  0
  2  9  3  0
  2 10  4  0
  2 12  2  0
  2 13  4  0
  2 16  3  0
  2 17  3  0
  2 22  3  0
  2 23  2  0
  3  4  4  0
  3  6  4  0
  3 10  2  0
  3 11  2  0
  3 12  3  0
  3 16  2  0
  3 23  4  0
  4  9  1  0
  4 10  4  0
  4 11  4  0
  4 12  1  0
  4 13  4  0
  5  7  1  0
  5  8  4  0
  5 11  4  0
  5 16  2  0
  5 19  3  0
  5 20  1  0
  6  8  4  0
  6 11  3  0
  6 13  1  0
  6 14  2  0
  6 16  3  0
  6 21  2  0
  6 23  1  0
  7  9  1  0
  7 12  2  0
  7 13  1  0
  7 15  3  0
  7 16  1  0
  7 17  2  0
  7 20  4  0
  7 22  1  0
  8 10  1  0
  8 11  4  0
  8 17  4  0
  8 21  4  0
  9 10  2  0
  9 12  1  0
  9 13  1  0
  9 14  3  0
  9 15  1  0
  9 16  3  0
  9 17  2  0
  9 18  4  0
  9 20  2  0
  9 21  4  0
 10 12  4  0
 10 14  1  0
 10 15  4  0
 10 19  4  0
 10 20  4  0
 10 23  3  0
 11 12  2  0
 11 13  1  0
 11 16  2  0
 11 21  1  0
 11 22  2  0
 12 15  4  0
 12 17  2  0
 12 18  1  0
 12 20  3  0
 12 23  4  0
 13 17  1  0
 13 22  2  0
 14 15  3  0
 14 16  2  0
 14 17  2  0
 14 19  2  0
 14 23  2  0
 15 16  1  0
 15 19  3  0
 15 20  4  0
 15 22  3  0
 16 19  2  0
 16 21  2  0
 17 18  2  0
 17 19  4  0
 17 22  4  0
 18 19  4  0
 19 20  3  0
 19 22  3  0
 20 21  2  0
M  END
$$$$

 Created by Python create_sdf_string function

 34 15  0  0  0  0  0  0  0  0999 V2000
   12.1733   -2.3504   21.5873 O   0  0  0  0  0  0  0  0  0  0  0  0
   12.6685   -3.0509   14.8598 C   0  0  0  0  0  0  0  0  0  0  0  0
   11.4052   -3.1625   17.7504 C   0  0  0  0  0  0  0  0  0  0  0  0
   10.5072   -5.4192   19.3519 C   0  0  0  0  0  0  0  0  0  0  0  0
    8.7475   -6.4329   17.3193 C   0  0  0  0  0  0  0  0  0  0  0  0
   11.3820   -3.8036   15.7552 C   0  0  0  0  0  0  0  0  0  0  0  0
    0.8182   -9.1386   16.2353 C   0  0  0  0  0  0  0  0  0  0  0  0
    8.9923   -6.8320   17.5211 C   0  0  0  0  0  0  0  0  0  0  0  0
   10.6929   -2.9159   23.1422 C   0  0  0  0  0  0  0  0  0  0  0  0
   10.6712   -4.7048   19.9247 C   0  0  0  0  0  0  0  0  0  0  0  0
    4.6465   -8.6489   17.2461 N   0  0  0  0  0  0  0  0  0  0  0  0
   11.6052   -2.4659   21.7079 C   0  0  0  0  0  0  0  0  0  0  0  0
   13.4049   -2.0526   13.2864 C   0  0  0  0  0  0  0  0  0  0  0  0
   10.9626   -3.8694   20.4929 C   0  0  0  0  0  0  0  0  0  0  0  0
    9.0498   -5.3175   16.1856 O   0  0  0  0  0  0  0  0  0  0  0  0
    4.7292   -8.2559   16.5634 C   0  0  0  0  0  0  0  0  0  0  0  0
    0.9710   -8.4027   16.0982 C   0  0  0  0  0  0  0  0  0  0  0  0
    6.9904   -7.4027   15.6159 C   0  0  0  0  0  0  0  0  0  0  0  0
   10.9314   -3.5007   21.8696 C   0  0  0  0  0  0  0  0  0  0  0  0
   11.2693   -3.4477   18.6125 C   0  0  0  0  0  0  0  0  0  0  0  0
    7.5972   -6.4585   15.8790 C   0  0  0  0  0  0  0  0  0  0  0  0
   11.3116   -3.4585   18.2100 C   0  0  0  0  0  0  0  0  0  0  0  0
    3.6523   -7.9495   16.0183 C   0  0  0  0  0  0  0  0  0  0  0  0
   -0.0043   -8.0033   15.8961 C   0  0  0  0  0  0  0  0  0  0  0  0
    0.8504   -7.6583   15.7583 C   0  0  0  0  0  0  0  0  0  0  0  0
    6.2521   -7.7907   17.6268 C   0  0  0  0  0  0  0  0  0  0  0  0
    1.9246   -8.8770   16.2378 C   0  0  0  0  0  0  0  0  0  0  0  0
    5.9534   -8.1394   17.4977 C   0  0  0  0  0  0  0  0  0  0  0  0
   10.5096   -4.0775   16.0391 C   0  0  0  0  0  0  0  0  0  0  0  0
   10.3572   -4.4356   17.5874 N   0  0  0  0  0  0  0  0  0  0  0  0
    7.9412   -6.9784   16.9802 C   0  0  0  0  0  0  0  0  0  0  0  0
   13.4378   -2.3634   13.6221 C   0  0  0  0  0  0  0  0  0  0  0  0
   12.7650   -2.8388   14.8439 N   0  0  0  0  0  0  0  0  0  0  0  0
    2.4879   -8.7062   16.1285 C   0  0  0  0  0  0  0  0  0  0  0  0
  1 12  4  0
  2 33  1  0
  3 22  4  0
  4 10  4  0
  6 29  4  0
  9 19  1  0
 13 32  1  0
 14 19  1  0
 17 24  4  0
 17 27  4  0
 18 21  4  0
 24 25  4  0
 26 28  4  0
 27 34  4  0
 32 33  1  0
M  END
$$$$

 Created by Python create_sdf_string function

 34 62  0  0  0  0  0  0  0  0999 V2000
   12.6603   -2.3361   23.1537 S   0  0  0  0  0  0  0  0  0  0  0  0
   11.2618   -3.4739   17.5563 C   0  0  0  0  0  0  0  0  0  0  0  0
   10.4132   -5.7664   19.4156 N   0  0  0  0  0  0  0  0  0  0  0  0
   12.2145   -3.7409   16.8236 C   0  0  0  0  0  0  0  0  0  0  0  0
   10.2437   -2.4045   23.7014 F   0  0  0  0  0  0  0  0  0  0  0  0
   12.2767   -5.9107   20.4878 O   0  0  0  0  0  0  0  0  0  0  0  0
    4.4332   -8.6040   16.9677 C   0  0  0  0  0  0  0  0  0  0  0  0
   11.0632   -2.8408   21.0303 Cl  0  0  0  0  0  0  0  0  0  0  0  0
    7.2836   -6.8706   15.6460 O   0  0  0  0  0  0  0  0  0  0  0  0
   11.3498   -4.5465   17.9257 C   0  0  0  0  0  0  0  0  0  0  0  0
    3.8271   -7.9866   15.8168 N   0  0  0  0  0  0  0  0  0  0  0  0
   -1.0962   -7.0902   16.9895 P   0  0  0  0  0  0  0  0  0  0  0  0
    2.5036   -9.2239   15.1595 C   0  0  0  0  0  0  0  0  0  0  0  0
    5.4103   -8.0960   17.0982 F   0  0  0  0  0  0  0  0  0  0  0  0
   11.8105   -4.0857   15.7478 N   0  0  0  0  0  0  0  0  0  0  0  0
    9.6758   -3.4567   17.6780 N   0  0  0  0  0  0  0  0  0  0  0  0
    7.7256   -7.8817   16.6090 C   0  0  0  0  0  0  0  0  0  0  0  0
   14.2246   -3.0067   13.6584 C   0  0  0  0  0  0  0  0  0  0  0  0
   13.4277   -4.4341   16.1471 C   0  0  0  0  0  0  0  0  0  0  0  0
    0.8684   -7.6500   16.5536 O   0  0  0  0  0  0  0  0  0  0  0  0
   11.7037   -1.5598   15.0531 He  0  0  0  0  0  0  0  0  0  0  0  0
    8.0157   -6.5403   16.9993 He  0  0  0  0  0  0  0  0  0  0  0  0
    0.0871   -9.5927   15.4270 He  0  0  0  0  0  0  0  0  0  0  0  0
    9.5889   -7.1110   17.0959 He  0  0  0  0  0  0  0  0  0  0  0  0
   11.0067   -3.6545   19.8493 He  0  0  0  0  0  0  0  0  0  0  0  0
    5.2679   -8.6111   16.9844 He  0  0  0  0  0  0  0  0  0  0  0  0
   11.0109   -4.1955   23.5314 He  0  0  0  0  0  0  0  0  0  0  0  0
   15.1766   -1.2699   14.1486 He  0  0  0  0  0  0  0  0  0  0  0  0
    9.2585   -5.1544   16.9132 He  0  0  0  0  0  0  0  0  0  0  0  0
    0.6836   -8.7588   18.4049 He  0  0  0  0  0  0  0  0  0  0  0  0
    6.7376   -7.3409   15.0528 He  0  0  0  0  0  0  0  0  0  0  0  0
   11.9203   -4.4760   18.0210 He  0  0  0  0  0  0  0  0  0  0  0  0
    0.7197   -7.0184   16.2450 He  0  0  0  0  0  0  0  0  0  0  0  0
    6.1127   -7.7295   16.5186 He  0  0  0  0  0  0  0  0  0  0  0  0
  1  6  4  0
  1  8  4  0
  1  9  2  0
  1 15  1  0
  1 16  2  0
  1 17  3  0
  2  6  1  0
  2  7  2  0
  2 10  4  0
  2 11  3  0
  2 15  1  0
  2 16  3  0
  2 18  4  0
  2 20  4  0
  3  5  4  0
  3  9  1  0
  3 11  1  0
  3 13  2  0
  3 15  4  0
  3 18  3  0
  3 19  2  0
  3 20  3  0
  4  7  4  0
  4 15  1  0
  4 18  1  0
  5  8  1  0
  5  9  1  0
  5 14  1  0
  5 16  1  0
  5 19  4  0
  6  7  4  0
  6  8  4  0
  6  9  3  0
  6 12  3  0
  6 13  3  0
  7  8  1  0
  7  9  4  0
  7 20  3  0
  8 14  1  0
  8 18  2  0
  8 19  4  0
  8 20  3  0
  9 12  2  0
  9 14  2  0
  9 15  2  0
 10 16  2  0
 10 18  3  0
 10 20  3  0
 11 14  3  0
 11 15  2  0
 11 17  1  0
 11 19  1  0
 12 20  4  0
 13 14  3  0
 13 17  3  0
 14 15  4  0
 15 17  1  0
 16 17  2  0
 16 18  1  0
 17 19  2  0
 18 19  2  0
 19 20  4  0
M  END
$$$$

 Created by Python create_sdf_string function

 34 13  0  0  0  0  0  0  0  0999 V2000
   11.9223   -2.8843   22.4942 C   0  0  0  0  0  0  0  0  0  0  0  0
   12.6230   -2.7402   14.7064 C   0  0  0  0  0  0  0  0  0  0  0  0
   11.3061   -3.9356   17.6371 C   0  0  0  0  0  0  0  0  0  0  0  0
   10.4348   -5.1616   19.5638 C   0  0  0  0  0  0  0  0  0  0  0  0
    8.1410   -6.4310   16.9303 C   0  0  0  0  0  0  0  0  0  0  0  0
   12.4464   -3.4381   15.7219 C   0  0  0  0  0  0  0  0  0  0  0  0
    0.1534   -9.1012   16.2279 C   0  0  0  0  0  0  0  0  0  0  0  0
    8.9231   -7.1840   17.3254 C   0  0  0  0  0  0  0  0  0  0  0  0
   10.7015   -2.9215   23.0055 C   0  0  0  0  0  0  0  0  0  0  0  0
   10.9871   -4.1523   20.2872 C   0  0  0  0  0  0  0  0  0  0  0  0
    4.9122   -8.4134   16.7694 C   0  0  0  0  0  0  0  0  0  0  0  0
   11.1587   -4.0600   23.0386 O   0  0  0  0  0  0  0  0  0  0  0  0
   14.4632   -2.0820   14.3335 O   0  0  0  0  0  0  0  0  0  0  0  0
   11.4848   -4.6998   20.7270 C   0  0  0  0  0  0  0  0  0  0  0  0
    9.1947   -5.5324   17.1595 C   0  0  0  0  0  0  0  0  0  0  0  0
    3.7046   -8.7135   16.7947 C   0  0  0  0  0  0  0  0  0  0  0  0
    1.1404   -9.0784   16.6457 C   0  0  0  0  0  0  0  0  0  0  0  0
    6.9162   -7.5112   15.7870 C   0  0  0  0  0  0  0  0  0  0  0  0
   11.0372   -3.4588   21.6029 C   0  0  0  0  0  0  0  0  0  0  0  0
   11.5387   -4.0497   17.8058 C   0  0  0  0  0  0  0  0  0  0  0  0
    7.4922   -6.7827   16.0331 C   0  0  0  0  0  0  0  0  0  0  0  0
   10.8904   -4.2390   18.2589 C   0  0  0  0  0  0  0  0  0  0  0  0
    3.8212   -8.1043   16.1274 N   0  0  0  0  0  0  0  0  0  0  0  0
    0.8783   -7.4830   16.4353 C   0  0  0  0  0  0  0  0  0  0  0  0
   -0.3216   -7.5705   16.5601 C   0  0  0  0  0  0  0  0  0  0  0  0
    6.1664   -7.8961   16.9430 C   0  0  0  0  0  0  0  0  0  0  0  0
    2.2182   -8.6333   16.2439 C   0  0  0  0  0  0  0  0  0  0  0  0
    5.5814   -8.0778   16.9810 C   0  0  0  0  0  0  0  0  0  0  0  0
   11.8871   -3.6637   15.7709 N   0  0  0  0  0  0  0  0  0  0  0  0
    9.8676   -4.4092   17.2510 N   0  0  0  0  0  0  0  0  0  0  0  0
    8.0418   -7.7985   16.7928 C   0  0  0  0  0  0  0  0  0  0  0  0
   13.7794   -2.8983   14.1212 C   0  0  0  0  0  0  0  0  0  0  0  0
   13.5558   -3.6923   15.3928 C   0  0  0  0  0  0  0  0  0  0  0  0
    0.6879   -7.7467   16.4045 C   0  0  0  0  0  0  0  0  0  0  0  0
  3 20  4  0
  3 22  4  0
  4 10  4  0
  6 29  1  0
  7 17  4  0
  8 31  1  0
  9 19  1  0
 13 32  1  0
 18 21  4  0
 24 25  4  0
 24 34  4  0
 25 34  4  0
 26 28  1  0
M  END
$$$$

 Created by Python create_sdf_string function

 34 52  0  0  0  0  0  0  0  0999 V2000
   11.8821   -3.4720   21.2573 C   0  0  0  0  0  0  0  0  0  0  0  0
   12.0152   -2.8066   15.5688 C   0  0  0  0  0  0  0  0  0  0  0  0
   12.3263   -4.9091   16.7573 C   0  0  0  0  0  0  0  0  0  0  0  0
    9.4584   -4.9601   19.6900 C   0  0  0  0  0  0  0  0  0  0  0  0
   11.1383   -3.7119   22.9468 F   0  0  0  0  0  0  0  0  0  0  0  0
   14.1119   -3.7367   13.0048 Cl  0  0  0  0  0  0  0  0  0  0  0  0
    8.1212   -3.2705   16.0833 C   0  0  0  0  0  0  0  0  0  0  0  0
    5.2037   -7.4327   15.3336 O   0  0  0  0  0  0  0  0  0  0  0  0
   10.4027   -2.3795   20.4348 P   0  0  0  0  0  0  0  0  0  0  0  0
   11.1262   -5.0108   17.7560 F   0  0  0  0  0  0  0  0  0  0  0  0
    3.2541   -8.1092   16.2467 B   0  0  0  0  0  0  0  0  0  0  0  0
   -0.8085   -7.5261   17.3820 C   0  0  0  0  0  0  0  0  0  0  0  0
    8.2232   -8.8083   17.8023 O   0  0  0  0  0  0  0  0  0  0  0  0
    4.9735   -8.9748   15.4497 C   0  0  0  0  0  0  0  0  0  0  0  0
    4.6007   -7.9241   17.3515 C   0  0  0  0  0  0  0  0  0  0  0  0
    8.0328   -3.3276   16.9844 N   0  0  0  0  0  0  0  0  0  0  0  0
    8.0748  -10.0143   16.7263 N   0  0  0  0  0  0  0  0  0  0  0  0
   14.9661   -0.7677   14.1284 N   0  0  0  0  0  0  0  0  0  0  0  0
    0.1885   -6.1148   16.1598 P   0  0  0  0  0  0  0  0  0  0  0  0
    6.8871   -5.5991   17.6405 He  0  0  0  0  0  0  0  0  0  0  0  0
   11.7255   -3.9425   14.8410 He  0  0  0  0  0  0  0  0  0  0  0  0
   -0.4836   -9.3720   15.9307 He  0  0  0  0  0  0  0  0  0  0  0  0
    9.2124   -6.8696   17.5937 He  0  0  0  0  0  0  0  0  0  0  0  0
   10.2514   -4.0918   23.9140 He  0  0  0  0  0  0  0  0  0  0  0  0
   10.5857   -5.5288   21.0089 He  0  0  0  0  0  0  0  0  0  0  0  0
    4.3594   -7.8865   17.2849 He  0  0  0  0  0  0  0  0  0  0  0  0
   11.0074   -5.1569   19.5499 He  0  0  0  0  0  0  0  0  0  0  0  0
    4.1829   -7.6324   17.4844 He  0  0  0  0  0  0  0  0  0  0  0  0
    0.3542   -6.8757   16.9791 He  0  0  0  0  0  0  0  0  0  0  0  0
   10.1586   -6.8608   15.6601 He  0  0  0  0  0  0  0  0  0  0  0  0
   10.5925   -5.6272   18.9662 He  0  0  0  0  0  0  0  0  0  0  0  0
    0.3263   -6.5921   16.0193 He  0  0  0  0  0  0  0  0  0  0  0  0
   11.5315   -3.1700   16.1397 He  0  0  0  0  0  0  0  0  0  0  0  0
   12.7337   -3.4349   16.4263 He  0  0  0  0  0  0  0  0  0  0  0  0
  1  3  1  0
  1  5  2  0
  1 10  1  0
  1 11  2  0
  1 12  2  0
  1 13  1  0
  1 17  1  0
  2  3  4  0
  2  5  3  0
  2  7  1  0
  2  8  4  0
  2 15  3  0
  2 16  2  0
  2 17  3  0
  3  5  4  0
  3 11  4  0
  3 12  4  0
  3 13  3  0
  3 14  4  0
  3 19  3  0
  4  6  2  0
  4 12  4  0
  4 15  2  0
  5  6  3  0
  5  8  3  0
  5 12  3  0
  5 15  2  0
  5 16  3  0
  5 17  4  0
  6  8  3  0
  6 13  1  0
  6 17  1  0
  7 14  3  0
  7 15  1  0
  8  9  1  0
  8 11  1  0
  8 15  2  0
  8 19  2  0
  9 11  3  0
  9 14  4  0
  9 17  4  0
 10 11  1  0
 10 16  4  0
 12 17  4  0
 12 19  4  0
 13 15  4  0
 14 16  3  0
 14 17  1  0
 14 18  2  0
 16 17  4  0
 16 18  4  0
 17 18  4  0
M  END
$$$$

 Created by Python create_sdf_string function

 34 11  0  0  0  0  0  0  0  0999 V2000
   11.3987   -3.7041   21.5167 C   0  0  0  0  0  0  0  0  0  0  0  0
   12.5151   -3.2618   15.6011 C   0  0  0  0  0  0  0  0  0  0  0  0
   11.9639   -4.2204   16.7669 C   0  0  0  0  0  0  0  0  0  0  0  0
   10.3519   -4.9122   19.6585 C   0  0  0  0  0  0  0  0  0  0  0  0
    6.8803   -7.0730   17.5079 C   0  0  0  0  0  0  0  0  0  0  0  0
   12.1159   -3.3962   15.0360 C   0  0  0  0  0  0  0  0  0  0  0  0
    0.0802   -8.5449   16.5415 C   0  0  0  0  0  0  0  0  0  0  0  0
    9.0090   -7.0914   17.5781 C   0  0  0  0  0  0  0  0  0  0  0  0
   10.9230   -3.7231   23.0703 C   0  0  0  0  0  0  0  0  0  0  0  0
   10.9043   -5.0216   21.1545 C   0  0  0  0  0  0  0  0  0  0  0  0
    3.9755   -7.8962   16.9223 C   0  0  0  0  0  0  0  0  0  0  0  0
   11.1251   -3.5968   22.6487 C   0  0  0  0  0  0  0  0  0  0  0  0
   13.5257   -3.0908   13.7620 C   0  0  0  0  0  0  0  0  0  0  0  0
   10.8986   -4.6211   19.4694 C   0  0  0  0  0  0  0  0  0  0  0  0
    9.5102   -3.9159   15.9797 C   0  0  0  0  0  0  0  0  0  0  0  0
    4.2061   -7.8922   17.0584 C   0  0  0  0  0  0  0  0  0  0  0  0
    1.1149   -7.6475   16.4874 C   0  0  0  0  0  0  0  0  0  0  0  0
    5.1149   -7.8676   16.1358 C   0  0  0  0  0  0  0  0  0  0  0  0
   11.1168   -3.3119   20.6757 C   0  0  0  0  0  0  0  0  0  0  0  0
   10.6258   -4.7805   17.7115 C   0  0  0  0  0  0  0  0  0  0  0  0
    9.2397   -6.8049   16.7338 C   0  0  0  0  0  0  0  0  0  0  0  0
   10.4131   -5.5546   18.7658 C   0  0  0  0  0  0  0  0  0  0  0  0
    2.5089   -8.1481   16.4530 C   0  0  0  0  0  0  0  0  0  0  0  0
    0.7684   -7.2880   16.2019 C   0  0  0  0  0  0  0  0  0  0  0  0
   -0.2904   -7.7367   16.6768 C   0  0  0  0  0  0  0  0  0  0  0  0
    8.0698   -7.9624   17.5029 C   0  0  0  0  0  0  0  0  0  0  0  0
    5.4024   -8.4646   16.0865 C   0  0  0  0  0  0  0  0  0  0  0  0
    4.9344   -8.0517   17.0485 C   0  0  0  0  0  0  0  0  0  0  0  0
   11.7630   -3.5894   16.0522 C   0  0  0  0  0  0  0  0  0  0  0  0
    9.4799   -4.3141   16.4292 C   0  0  0  0  0  0  0  0  0  0  0  0
    7.7118   -8.4178   16.3638 C   0  0  0  0  0  0  0  0  0  0  0  0
   13.9209   -1.8782   14.4358 O   0  0  0  0  0  0  0  0  0  0  0  0
   12.7283   -3.1422   15.5344 C   0  0  0  0  0  0  0  0  0  0  0  0
    0.5801   -7.2073   16.1797 C   0  0  0  0  0  0  0  0  0  0  0  0
  1 19  4  0
  2  3  4  0
  4 10  4  0
  7 25  4  0
  8 21  1  0
  9 12  1  0
 11 16  4  0
 15 30  4  0
 18 27  4  0
 24 34  4  0
 25 34  4  0
M  END
$$$$

 Created by Python create_sdf_string function

 34 44  0  0  0  0  0  0  0  0999 V2000
   11.7836   -4.7145   21.2859 C   0  0  0  0  0  0  0  0  0  0  0  0
   13.9932   -4.2888   15.0145 F   0  0  0  0  0  0  0  0  0  0  0  0
   10.9318   -5.0394   16.2168 C   0  0  0  0  0  0  0  0  0  0  0  0
   10.1072   -4.5539   19.6536 C   0  0  0  0  0  0  0  0  0  0  0  0
   12.8420   -3.1952   14.7211 C   0  0  0  0  0  0  0  0  0  0  0  0
    9.2225   -8.8808   18.1062 C   0  0  0  0  0  0  0  0  0  0  0  0
   10.2820   -3.6236   23.2248 O   0  0  0  0  0  0  0  0  0  0  0  0
   13.1023   -1.6665   13.3814 Cl  0  0  0  0  0  0  0  0  0  0  0  0
    8.2168   -3.3828   15.4974 C   0  0  0  0  0  0  0  0  0  0  0  0
    3.7978   -9.0051   16.1415 O   0  0  0  0  0  0  0  0  0  0  0  0
    5.1767   -6.8091   15.6138 O   0  0  0  0  0  0  0  0  0  0  0  0
   11.9343   -1.9526   20.0741 N   0  0  0  0  0  0  0  0  0  0  0  0
   10.5511   -6.4172   18.0951 C   0  0  0  0  0  0  0  0  0  0  0  0
    9.5497   -5.2701   18.3101 N   0  0  0  0  0  0  0  0  0  0  0  0
    2.7077   -7.5760   16.5032 F   0  0  0  0  0  0  0  0  0  0  0  0
   -0.3900   -7.0546   16.5962 C   0  0  0  0  0  0  0  0  0  0  0  0
    5.9109   -7.8742   15.6088 C   0  0  0  0  0  0  0  0  0  0  0  0
    6.2516   -7.8114   16.6272 He  0  0  0  0  0  0  0  0  0  0  0  0
    1.3228   -8.9806   16.3702 He  0  0  0  0  0  0  0  0  0  0  0  0
   11.4181   -4.7663   20.9127 He  0  0  0  0  0  0  0  0  0  0  0  0
    2.9873   -7.5820   17.9205 He  0  0  0  0  0  0  0  0  0  0  0  0
   11.6975   -3.7125   22.9245 He  0  0  0  0  0  0  0  0  0  0  0  0
   10.2201   -4.0606   20.8849 He  0  0  0  0  0  0  0  0  0  0  0  0
    2.0642   -7.3039   16.5611 He  0  0  0  0  0  0  0  0  0  0  0  0
    9.8018   -6.7260   16.9435 He  0  0  0  0  0  0  0  0  0  0  0  0
    0.0332   -8.0458   16.4027 He  0  0  0  0  0  0  0  0  0  0  0  0
    7.3021   -7.7373   16.2927 He  0  0  0  0  0  0  0  0  0  0  0  0
    5.9052   -6.5354   17.2214 He  0  0  0  0  0  0  0  0  0  0  0  0
   11.9452   -4.4165   15.7154 He  0  0  0  0  0  0  0  0  0  0  0  0
    9.5998   -4.2314   16.9950 He  0  0  0  0  0  0  0  0  0  0  0  0
    8.3217   -8.4845   15.6968 He  0  0  0  0  0  0  0  0  0  0  0  0
   13.7671   -2.2010   15.1470 He  0  0  0  0  0  0  0  0  0  0  0  0
   11.8372   -3.9812   16.3073 He  0  0  0  0  0  0  0  0  0  0  0  0
    1.1635   -6.2713   15.7120 He  0  0  0  0  0  0  0  0  0  0  0  0
  1 12  4  0
  1 14  4  0
  1 16  3  0
  1 17  3  0
  2  3  3  0
  2  6  1  0
  2 11  1  0
  2 13  3  0
  2 14  3  0
  2 15  3  0
  2 16  1  0
  3  8  4  0
  3 11  1  0
  3 13  4  0
  4  6  2  0
  4  7  4  0
  4  9  1  0
  4 11  3  0
  4 13  4  0
  4 15  2  0
  5  6  3  0
  5  8  1  0
  5 12  2  0
  5 14  3  0
  5 15  1  0
  6 11  3  0
  7 12  4  0
  7 13  3  0
  7 15  3  0
  7 16  2  0
  8 12  2  0
  8 16  3  0
  9 10  2  0
  9 15  2  0
 10 14  4  0
 10 16  3  0
 11 13  4  0
 11 15  1  0
 11 17  4  0
 12 14  3  0
 12 17  3  0
 13 15  4  0
 14 17  1  0
 15 17  2  0
M  END
$$$$

 Created by Python create_sdf_string function

 34 22  0  0  0  0  0  0  0  0999 V2000
   11.8352   -4.1345   21.3577 C   0  0  0  0  0  0  0  0  0  0  0  0
   13.4274   -3.5449   15.2561 C   0  0  0  0  0  0  0  0  0  0  0  0
   10.7059   -4.8430   17.0469 C   0  0  0  0  0  0  0  0  0  0  0  0
   10.6476   -4.8568   19.6750 C   0  0  0  0  0  0  0  0  0  0  0  0
    6.5740   -7.8661   16.7010 C   0  0  0  0  0  0  0  0  0  0  0  0
   12.7308   -2.9183   14.5797 C   0  0  0  0  0  0  0  0  0  0  0  0
    1.2737   -8.8829   16.5768 C   0  0  0  0  0  0  0  0  0  0  0  0
    8.8558   -8.1155   17.4848 C   0  0  0  0  0  0  0  0  0  0  0  0
   10.9327   -3.3309   23.1658 O   0  0  0  0  0  0  0  0  0  0  0  0
   10.8143   -4.7323   20.3872 C   0  0  0  0  0  0  0  0  0  0  0  0
    3.2087   -8.0688   16.6809 C   0  0  0  0  0  0  0  0  0  0  0  0
   11.2160   -3.5992   22.4657 C   0  0  0  0  0  0  0  0  0  0  0  0
   13.2414   -2.3410   13.8092 O   0  0  0  0  0  0  0  0  0  0  0  0
   10.3947   -4.1364   21.1995 C   0  0  0  0  0  0  0  0  0  0  0  0
    9.6792   -3.8147   15.9302 C   0  0  0  0  0  0  0  0  0  0  0  0
    3.8787   -8.7680   16.5731 O   0  0  0  0  0  0  0  0  0  0  0  0
    1.9249   -7.2798   16.0975 C   0  0  0  0  0  0  0  0  0  0  0  0
    5.1777   -7.3734   15.9104 C   0  0  0  0  0  0  0  0  0  0  0  0
   11.6160   -3.2339   20.6086 N   0  0  0  0  0  0  0  0  0  0  0  0
    9.9558   -5.9257   17.9974 C   0  0  0  0  0  0  0  0  0  0  0  0
    9.4247   -6.5212   17.4355 C   0  0  0  0  0  0  0  0  0  0  0  0
    9.9535   -5.5013   18.3718 N   0  0  0  0  0  0  0  0  0  0  0  0
    2.9367   -7.7556   16.3495 C   0  0  0  0  0  0  0  0  0  0  0  0
    0.1156   -7.3651   16.1438 C   0  0  0  0  0  0  0  0  0  0  0  0
    0.3073   -8.3153   16.5147 C   0  0  0  0  0  0  0  0  0  0  0  0
    7.3731   -7.5850   16.7909 C   0  0  0  0  0  0  0  0  0  0  0  0
    6.3435   -7.9712   15.9193 C   0  0  0  0  0  0  0  0  0  0  0  0
    6.3549   -7.2924   17.3034 C   0  0  0  0  0  0  0  0  0  0  0  0
   11.6408   -3.6792   15.7823 C   0  0  0  0  0  0  0  0  0  0  0  0
   10.0207   -4.1615   16.4837 C   0  0  0  0  0  0  0  0  0  0  0  0
    8.1188   -8.1958   16.0100 C   0  0  0  0  0  0  0  0  0  0  0  0
   13.4404   -2.6864   14.7706 C   0  0  0  0  0  0  0  0  0  0  0  0
   11.8226   -3.7070   16.4978 C   0  0  0  0  0  0  0  0  0  0  0  0
    0.9875   -7.0414   15.9594 C   0  0  0  0  0  0  0  0  0  0  0  0
  1 12  4  0
  1 19  4  0
  2 32  1  0
  3 20  4  0
  4 10  4  0
  6 13  1  0
  6 32  2  0
  7 25  4  0
  9 12  1  0
 10 14  4  0
 11 23  1  0
 12 14  4  0
 13 32  1  0
 15 29  4  0
 15 30  4  0
 17 23  4  0
 17 34  4  0
 18 27  4  0
 20 21  1  0
 24 25  4  0
 24 34  4  0
 29 33  4  0
M  END
$$$$

 Created by Python create_sdf_string function

 34 77  0  0  0  0  0  0  0  0999 V2000
    9.2422   -5.0433   19.6882 C   0  0  0  0  0  0  0  0  0  0  0  0
   13.5291   -3.1811   15.4339 C   0  0  0  0  0  0  0  0  0  0  0  0
   12.3494   -3.8946   14.4404 Br  0  0  0  0  0  0  0  0  0  0  0  0
    1.8476  -10.4980   16.3410 C   0  0  0  0  0  0  0  0  0  0  0  0
   12.0153   -2.9965   22.1700 O   0  0  0  0  0  0  0  0  0  0  0  0
   11.8303   -5.8806   19.7282 F   0  0  0  0  0  0  0  0  0  0  0  0
    2.6192   -8.4813   15.3758 C   0  0  0  0  0  0  0  0  0  0  0  0
   12.2995   -3.0260   14.3505 N   0  0  0  0  0  0  0  0  0  0  0  0
   11.9393   -3.5864   21.6408 P   0  0  0  0  0  0  0  0  0  0  0  0
    9.8632   -4.4033   16.0658 Cl  0  0  0  0  0  0  0  0  0  0  0  0
    2.9522   -8.3571   17.2940 Cl  0  0  0  0  0  0  0  0  0  0  0  0
    5.7371   -8.3857   16.7685 C   0  0  0  0  0  0  0  0  0  0  0  0
   13.7936   -3.9598   19.7607 O   0  0  0  0  0  0  0  0  0  0  0  0
    9.0088   -5.1404   18.1691 C   0  0  0  0  0  0  0  0  0  0  0  0
    4.0600   -8.1699   16.4678 Cl  0  0  0  0  0  0  0  0  0  0  0  0
    0.5160   -6.5169   16.5334 F   0  0  0  0  0  0  0  0  0  0  0  0
    6.9084   -8.3790   16.1144 N   0  0  0  0  0  0  0  0  0  0  0  0
    9.1726   -3.6951   16.9439 C   0  0  0  0  0  0  0  0  0  0  0  0
    8.2945   -9.9786   15.0583 C   0  0  0  0  0  0  0  0  0  0  0  0
   13.1081   -2.6863   15.2507 C   0  0  0  0  0  0  0  0  0  0  0  0
   11.8844   -2.0513   17.4369 C   0  0  0  0  0  0  0  0  0  0  0  0
   -0.0565   -6.1104   16.6227 C   0  0  0  0  0  0  0  0  0  0  0  0
   11.2320   -4.3422   16.6340 He  0  0  0  0  0  0  0  0  0  0  0  0
   10.4933   -4.5895   19.3993 He  0  0  0  0  0  0  0  0  0  0  0  0
    6.7537   -7.8593   16.1099 He  0  0  0  0  0  0  0  0  0  0  0  0
    8.9492   -8.5340   17.9493 He  0  0  0  0  0  0  0  0  0  0  0  0
   11.4389   -3.3515   22.3011 He  0  0  0  0  0  0  0  0  0  0  0  0
    6.2125   -9.2221   15.4925 He  0  0  0  0  0  0  0  0  0  0  0  0
    9.5734   -6.6591   18.2196 He  0  0  0  0  0  0  0  0  0  0  0  0
    9.5238   -5.1286   17.8615 He  0  0  0  0  0  0  0  0  0  0  0  0
    0.6186   -8.0522   15.5146 He  0  0  0  0  0  0  0  0  0  0  0  0
    7.2228   -7.2056   16.5134 He  0  0  0  0  0  0  0  0  0  0  0  0
    6.8658   -6.4770   17.7643 He  0  0  0  0  0  0  0  0  0  0  0  0
   10.3404   -5.1274   15.7303 He  0  0  0  0  0  0  0  0  0  0  0  0
  1  8  1  0
  1  9  3  0
  1 11  4  0
  1 18  2  0
  2  3  3  0
  2  7  1  0
  2  9  1  0
  2 13  3  0
  2 15  2  0
  2 16  3  0
  2 19  1  0
  3  6  4  0
  3 10  2  0
  3 12  2  0
  3 14  3  0
  3 17  3  0
  3 19  2  0
  3 20  1  0
  4 10  4  0
  4 19  2  0
  4 21  1  0
  5  7  3  0
  5 14  2  0
  5 15  2  0
  5 16  3  0
  5 17  1  0
  5 18  2  0
  5 22  3  0
  6 10  2  0
  6 13  4  0
  6 15  4  0
  6 18  4  0
  6 19  1  0
  6 21  1  0
  7  8  1  0
  7 12  4  0
  7 14  1  0
  7 15  1  0
  7 21  2  0
  8 13  3  0
  8 14  1  0
  8 20  1  0
  9 17  3  0
  9 20  2  0
 10 12  3  0
 10 16  3  0
 10 17  3  0
 10 19  4  0
 10 20  2  0
 10 21  1  0
 10 22  2  0
 11 12  2  0
 11 13  2  0
 11 14  4  0
 11 15  4  0
 11 18  1  0
 11 22  2  0
 12 15  2  0
 12 16  4  0
 12 17  4  0
 13 14  3  0
 13 21  3  0
 14 16  4  0
 14 19  3  0
 14 21  4  0
 15 16  4  0
 15 18  4  0
 15 19  2  0
 15 22  1  0
 16 18  4  0
 16 19  4  0
 16 20  4  0
 17 19  2  0
 17 20  4  0
 18 22  1  0
 20 21  4  0
 20 22  1  0
M  END
$$$$

 Created by Python create_sdf_string function

 34 12  0  0  0  0  0  0  0  0999 V2000
   10.0565   -4.6345   19.6727 C   0  0  0  0  0  0  0  0  0  0  0  0
   12.9968   -3.0637   15.3172 C   0  0  0  0  0  0  0  0  0  0  0  0
   11.4208   -3.7065   16.4119 C   0  0  0  0  0  0  0  0  0  0  0  0
   10.7120   -4.3808   19.9336 C   0  0  0  0  0  0  0  0  0  0  0  0
    6.4042   -7.8371   16.5223 C   0  0  0  0  0  0  0  0  0  0  0  0
   12.2926   -3.4323   14.3198 C   0  0  0  0  0  0  0  0  0  0  0  0
    1.5136   -9.2566   16.1706 C   0  0  0  0  0  0  0  0  0  0  0  0
    8.8766   -8.0373   17.5641 C   0  0  0  0  0  0  0  0  0  0  0  0
   11.8605   -3.3032   22.1130 O   0  0  0  0  0  0  0  0  0  0  0  0
   11.9279   -5.2108   19.9554 C   0  0  0  0  0  0  0  0  0  0  0  0
    2.8488   -8.6102   15.9603 C   0  0  0  0  0  0  0  0  0  0  0  0
   11.4637   -3.7119   21.9741 C   0  0  0  0  0  0  0  0  0  0  0  0
   12.5166   -3.1343   13.9801 N   0  0  0  0  0  0  0  0  0  0  0  0
   11.7741   -3.9817   21.6308 C   0  0  0  0  0  0  0  0  0  0  0  0
   10.3864   -4.2318   16.0193 C   0  0  0  0  0  0  0  0  0  0  0  0
    5.7998   -8.9134   15.6227 C   0  0  0  0  0  0  0  0  0  0  0  0
    2.9220   -8.0970   16.5351 C   0  0  0  0  0  0  0  0  0  0  0  0
    5.1954   -8.1788   16.5324 C   0  0  0  0  0  0  0  0  0  0  0  0
   12.3528   -4.7678   20.4461 C   0  0  0  0  0  0  0  0  0  0  0  0
    9.2331   -6.7667   18.1712 C   0  0  0  0  0  0  0  0  0  0  0  0
    9.4380   -5.5362   18.3374 C   0  0  0  0  0  0  0  0  0  0  0  0
    9.7122   -5.0391   17.8162 C   0  0  0  0  0  0  0  0  0  0  0  0
    3.4126   -8.0826   16.3565 C   0  0  0  0  0  0  0  0  0  0  0  0
    1.2038   -7.0942   16.4004 C   0  0  0  0  0  0  0  0  0  0  0  0
    0.7208   -8.3804   15.9142 C   0  0  0  0  0  0  0  0  0  0  0  0
    7.4663   -7.4790   16.6880 C   0  0  0  0  0  0  0  0  0  0  0  0
    6.7210   -8.5024   15.9441 C   0  0  0  0  0  0  0  0  0  0  0  0
    7.3937   -6.7603   17.8588 C   0  0  0  0  0  0  0  0  0  0  0  0
   10.3334   -4.3584   15.9236 C   0  0  0  0  0  0  0  0  0  0  0  0
    9.9265   -4.3030   16.9091 C   0  0  0  0  0  0  0  0  0  0  0  0
    7.7275   -8.6054   15.4938 C   0  0  0  0  0  0  0  0  0  0  0  0
   12.9145   -2.7871   15.1506 C   0  0  0  0  0  0  0  0  0  0  0  0
   11.8842   -2.8317   16.8618 C   0  0  0  0  0  0  0  0  0  0  0  0
    0.9110   -7.1067   16.4577 C   0  0  0  0  0  0  0  0  0  0  0  0
  1  4  4  0
  5 18  4  0
  7 25  4  0
 10 19  4  0
 11 23  1  0
 12 14  4  0
 15 29  4  0
 17 23  4  0
 20 21  1  0
 21 22  4  0
 22 30  4  0
 24 34  4  0
M  END
$$$$

 Created by Python create_sdf_string function

 34 69  0  0  0  0  0  0  0  0999 V2000
   10.5334   -3.9423   18.9791 C   0  0  0  0  0  0  0  0  0  0  0  0
   11.0519   -3.9827   15.6496 C   0  0  0  0  0  0  0  0  0  0  0  0
    5.7430   -7.9604   18.1152 Cl  0  0  0  0  0  0  0  0  0  0  0  0
   11.6010   -3.6566   15.9119 C   0  0  0  0  0  0  0  0  0  0  0  0
    1.4296   -9.3758   16.2712 C   0  0  0  0  0  0  0  0  0  0  0  0
    3.7381   -8.5311   15.9169 C   0  0  0  0  0  0  0  0  0  0  0  0
   11.2463   -4.4795   15.7871 S   0  0  0  0  0  0  0  0  0  0  0  0
    1.5048   -7.5421   15.8658 C   0  0  0  0  0  0  0  0  0  0  0  0
    6.1350   -6.9338   15.7775 C   0  0  0  0  0  0  0  0  0  0  0  0
   11.2474   -3.8805   18.9538 C   0  0  0  0  0  0  0  0  0  0  0  0
   10.5350   -5.3024   18.9906 Cl  0  0  0  0  0  0  0  0  0  0  0  0
   10.0201   -5.3972   16.7779 C   0  0  0  0  0  0  0  0  0  0  0  0
    0.1790   -7.8035   14.9644 S   0  0  0  0  0  0  0  0  0  0  0  0
    0.9761   -7.4604   17.3131 C   0  0  0  0  0  0  0  0  0  0  0  0
    6.8655   -7.4730   17.3979 C   0  0  0  0  0  0  0  0  0  0  0  0
    6.5396   -8.5624   16.2705 C   0  0  0  0  0  0  0  0  0  0  0  0
    6.9834   -7.1042   18.5652 S   0  0  0  0  0  0  0  0  0  0  0  0
    9.3919   -3.6772   17.1820 F   0  0  0  0  0  0  0  0  0  0  0  0
    8.4937  -11.3942   15.8390 S   0  0  0  0  0  0  0  0  0  0  0  0
   11.7968   -2.2087   14.2705 C   0  0  0  0  0  0  0  0  0  0  0  0
   11.9324   -3.5916   15.3214 P   0  0  0  0  0  0  0  0  0  0  0  0
   11.8937   -3.2672   14.1200 He  0  0  0  0  0  0  0  0  0  0  0  0
   11.3192   -3.0485   20.7605 He  0  0  0  0  0  0  0  0  0  0  0  0
    7.2541   -7.0078   17.2593 He  0  0  0  0  0  0  0  0  0  0  0  0
   12.4255   -4.3958   20.8940 He  0  0  0  0  0  0  0  0  0  0  0  0
   11.1363   -5.6220   20.2405 He  0  0  0  0  0  0  0  0  0  0  0  0
   11.3752   -3.5138   22.7991 He  0  0  0  0  0  0  0  0  0  0  0  0
   12.8348   -2.3993   13.6228 He  0  0  0  0  0  0  0  0  0  0  0  0
    9.8254   -4.0755   22.0227 He  0  0  0  0  0  0  0  0  0  0  0  0
    6.3215   -9.0868   14.4464 He  0  0  0  0  0  0  0  0  0  0  0  0
    8.2393   -7.5130   17.5532 He  0  0  0  0  0  0  0  0  0  0  0  0
    3.4613   -7.5742   15.7887 He  0  0  0  0  0  0  0  0  0  0  0  0
   10.5984   -4.0696   16.5282 He  0  0  0  0  0  0  0  0  0  0  0  0
    0.1207   -7.1878   17.3807 He  0  0  0  0  0  0  0  0  0  0  0  0
  1  5  4  0
  1  7  1  0
  1  9  3  0
  1 18  1  0
  2  3  3  0
  2  5  4  0
  2  6  4  0
  2 16  1  0
  2 18  1  0
  2 19  2  0
  3  9  1  0
  3 14  4  0
  3 18  1  0
  3 20  3  0
  3 21  2  0
  4  9  1  0
  4 10  3  0
  4 14  3  0
  4 21  1  0
  5  6  3  0
  5 10  3  0
  5 11  2  0
  5 19  2  0
  6  8  1  0
  6 10  2  0
  6 12  3  0
  6 15  2  0
  6 18  3  0
  6 20  3  0
  7  9  3  0
  7 10  4  0
  7 11  4  0
  7 14  1  0
  7 15  3  0
  7 17  1  0
  7 18  3  0
  7 21  4  0
  8 14  1  0
  8 17  1  0
  8 18  4  0
  9 10  2  0
  9 14  3  0
  9 15  1  0
  9 16  4  0
  9 18  4  0
  9 20  4  0
 10 11  3  0
 10 12  1  0
 10 17  1  0
 10 18  3  0
 10 19  3  0
 10 21  2  0
 11 12  4  0
 11 15  2  0
 12 19  2  0
 13 15  3  0
 13 17  4  0
 13 18  4  0
 13 19  2  0
 14 15  1  0
 15 19  1  0
 16 18  3  0
 16 21  3  0
 17 18  2  0
 17 20  4  0
 18 19  2  0
 18 21  2  0
 19 20  2  0
 19 21  2  0
M  END
$$$$

 Created by Python create_sdf_string function

 34 22  0  0  0  0  0  0  0  0999 V2000
   10.7914   -3.7796   19.4305 C   0  0  0  0  0  0  0  0  0  0  0  0
   12.7269   -3.0159   13.6662 C   0  0  0  0  0  0  0  0  0  0  0  0
   10.7131   -3.8643   15.9344 C   0  0  0  0  0  0  0  0  0  0  0  0
   11.3437   -3.6262   21.2232 C   0  0  0  0  0  0  0  0  0  0  0  0
    5.4528   -7.7728   17.6653 C   0  0  0  0  0  0  0  0  0  0  0  0
   12.0771   -3.4246   15.2612 C   0  0  0  0  0  0  0  0  0  0  0  0
    1.3709   -9.1548   16.4244 C   0  0  0  0  0  0  0  0  0  0  0  0
    7.9255   -6.7862   17.4071 C   0  0  0  0  0  0  0  0  0  0  0  0
   12.3564   -4.2527   21.3265 O   0  0  0  0  0  0  0  0  0  0  0  0
   10.8286   -5.3121   19.9776 C   0  0  0  0  0  0  0  0  0  0  0  0
    3.3583   -8.2215   16.0709 C   0  0  0  0  0  0  0  0  0  0  0  0
   11.2499   -3.3803   22.5207 O   0  0  0  0  0  0  0  0  0  0  0  0
   13.1565   -2.5616   13.2438 O   0  0  0  0  0  0  0  0  0  0  0  0
   10.6611   -3.9775   21.7189 C   0  0  0  0  0  0  0  0  0  0  0  0
   11.7549   -3.9212   16.0544 C   0  0  0  0  0  0  0  0  0  0  0  0
    6.2968   -9.2107   15.2375 C   0  0  0  0  0  0  0  0  0  0  0  0
    2.0361   -7.5366   16.0204 C   0  0  0  0  0  0  0  0  0  0  0  0
    5.2588   -7.5009   15.9980 C   0  0  0  0  0  0  0  0  0  0  0  0
   10.9285   -4.2072   19.0832 C   0  0  0  0  0  0  0  0  0  0  0  0
    8.4679   -7.5940   17.4083 C   0  0  0  0  0  0  0  0  0  0  0  0
   10.1521   -5.7522   18.8390 C   0  0  0  0  0  0  0  0  0  0  0  0
    9.4815   -5.7255   17.7274 C   0  0  0  0  0  0  0  0  0  0  0  0
    3.7169   -7.8270   16.0951 C   0  0  0  0  0  0  0  0  0  0  0  0
    0.0618   -7.7172   15.3128 O   0  0  0  0  0  0  0  0  0  0  0  0
    0.7276   -7.7092   16.2798 C   0  0  0  0  0  0  0  0  0  0  0  0
    6.9642   -7.9222   16.9812 C   0  0  0  0  0  0  0  0  0  0  0  0
    6.0659   -8.2978   15.9587 C   0  0  0  0  0  0  0  0  0  0  0  0
    7.4322   -6.9032   17.9117 C   0  0  0  0  0  0  0  0  0  0  0  0
   10.5748   -4.0600   16.5221 C   0  0  0  0  0  0  0  0  0  0  0  0
    9.5534   -4.4086   16.8383 C   0  0  0  0  0  0  0  0  0  0  0  0
    7.8934   -9.1784   15.6156 O   0  0  0  0  0  0  0  0  0  0  0  0
   12.1837   -2.9023   14.1168 C   0  0  0  0  0  0  0  0  0  0  0  0
   12.6005   -3.4143   15.1550 C   0  0  0  0  0  0  0  0  0  0  0  0
    0.1157   -7.4366   16.9755 C   0  0  0  0  0  0  0  0  0  0  0  0
  1  4  4  0
  1 19  4  0
  2  6  1  0
  2 13  1  0
  3 29  4  0
  4  9  2  0
  4 12  1  0
  4 14  1  0
  7 25  1  0
  8 28  4  0
 10 19  4  0
 10 21  4  0
 11 17  1  0
 11 23  1  0
 15 33  4  0
 16 27  1  0
 17 25  1  0
 18 23  4  0
 18 27  4  0
 21 22  4  0
 24 25  1  0
 25 34  1  0
M  END
$$$$

 Created by Python create_sdf_string function

 34 61  0  0  0  0  0  0  0  0999 V2000
   10.8608   -2.6263   20.2616 C   0  0  0  0  0  0  0  0  0  0  0  0
   12.2148   -2.7160   13.0575 C   0  0  0  0  0  0  0  0  0  0  0  0
   11.5970   -4.1913   21.0298 C   0  0  0  0  0  0  0  0  0  0  0  0
    1.1516   -9.7878   16.5966 C   0  0  0  0  0  0  0  0  0  0  0  0
    7.8205   -7.9482   16.3076 P   0  0  0  0  0  0  0  0  0  0  0  0
   12.7687   -4.6597   22.1920 O   0  0  0  0  0  0  0  0  0  0  0  0
   11.5440   -4.2136   20.3836 N   0  0  0  0  0  0  0  0  0  0  0  0
   11.3742   -3.3250   22.8133 O   0  0  0  0  0  0  0  0  0  0  0  0
   10.4642   -3.1202   22.1004 C   0  0  0  0  0  0  0  0  0  0  0  0
    6.2377   -9.6717   15.1513 C   0  0  0  0  0  0  0  0  0  0  0  0
    9.0280   -8.4196   18.0074 C   0  0  0  0  0  0  0  0  0  0  0  0
    9.8299   -5.8373   17.9511 C   0  0  0  0  0  0  0  0  0  0  0  0
    4.0153   -8.4737   16.5573 C   0  0  0  0  0  0  0  0  0  0  0  0
    6.0611   -8.7385   17.1907 C   0  0  0  0  0  0  0  0  0  0  0  0
    5.3332   -7.2219   16.8446 N   0  0  0  0  0  0  0  0  0  0  0  0
    9.9884   -3.7136   16.4988 P   0  0  0  0  0  0  0  0  0  0  0  0
    9.8380   -3.4000   15.8165 C   0  0  0  0  0  0  0  0  0  0  0  0
   12.1964   -2.6229   15.4037 Br  0  0  0  0  0  0  0  0  0  0  0  0
   13.0850   -4.9300   15.2266 S   0  0  0  0  0  0  0  0  0  0  0  0
    0.4989   -8.5833   17.8214 O   0  0  0  0  0  0  0  0  0  0  0  0
   10.5669   -3.3102   15.9856 He  0  0  0  0  0  0  0  0  0  0  0  0
    4.9469   -9.0429   18.2176 He  0  0  0  0  0  0  0  0  0  0  0  0
   12.2489   -4.0106   17.0119 He  0  0  0  0  0  0  0  0  0  0  0  0
    4.4771   -8.1899   15.6234 He  0  0  0  0  0  0  0  0  0  0  0  0
   12.9570   -3.2746   14.5735 He  0  0  0  0  0  0  0  0  0  0  0  0
   11.5114   -3.1858   16.2914 He  0  0  0  0  0  0  0  0  0  0  0  0
    1.9142   -7.6893   15.1963 He  0  0  0  0  0  0  0  0  0  0  0  0
    6.4930   -8.8962   16.6482 He  0  0  0  0  0  0  0  0  0  0  0  0
   10.4797   -4.1031   18.0985 He  0  0  0  0  0  0  0  0  0  0  0  0
    9.9312   -5.5834   20.0452 He  0  0  0  0  0  0  0  0  0  0  0  0
   -0.4026   -7.5722   15.8773 He  0  0  0  0  0  0  0  0  0  0  0  0
    0.9520   -8.7854   17.2457 He  0  0  0  0  0  0  0  0  0  0  0  0
    8.4735   -6.7609   17.5113 He  0  0  0  0  0  0  0  0  0  0  0  0
    7.5798   -8.8442   15.3605 He  0  0  0  0  0  0  0  0  0  0  0  0
  1  2  2  0
  1  5  4  0
  1  8  1  0
  1 12  3  0
  1 14  3  0
  1 15  4  0
  1 16  3  0
  1 18  3  0
  1 20  3  0
  2  4  3  0
  2  5  3  0
  2  7  2  0
  2 16  1  0
  2 17  2  0
  3  6  4  0
  3  8  3  0
  3 16  3  0
  3 18  2  0
  4  7  2  0
  4 10  4  0
  4 18  1  0
  4 20  1  0
  5  6  1  0
  5 13  1  0
  5 14  1  0
  5 15  1  0
  5 17  4  0
  5 20  4  0
  6  9  2  0
  6 10  4  0
  6 12  2  0
  6 13  3  0
  6 16  4  0
  7 11  1  0
  7 14  1  0
  7 20  2  0
  8  9  2  0
  8 12  2  0
  8 15  1  0
  8 18  4  0
  8 19  4  0
  9 13  3  0
  9 17  1  0
  9 18  3  0
  9 19  2  0
  9 20  4  0
 11 13  1  0
 11 17  4  0
 11 20  2  0
 12 15  1  0
 12 18  2  0
 13 15  1  0
 13 16  2  0
 13 18  1  0
 14 15  1  0
 14 16  4  0
 14 19  4  0
 15 16  1  0
 17 19  4  0
 17 20  2  0
 19 20  2  0
M  END
$$$$

 Created by Python create_sdf_string function

 34 21  0  0  0  0  0  0  0  0999 V2000
   10.9660   -3.4452   20.6500 C   0  0  0  0  0  0  0  0  0  0  0  0
   12.6013   -2.8713   13.4766 C   0  0  0  0  0  0  0  0  0  0  0  0
   10.5007   -3.8261   15.9116 C   0  0  0  0  0  0  0  0  0  0  0  0
   11.7293   -4.6388   21.3025 C   0  0  0  0  0  0  0  0  0  0  0  0
    4.5608   -8.9621   17.5439 C   0  0  0  0  0  0  0  0  0  0  0  0
   11.8033   -3.8653   17.3855 C   0  0  0  0  0  0  0  0  0  0  0  0
    1.2543   -9.2884   16.9292 C   0  0  0  0  0  0  0  0  0  0  0  0
    7.8860   -7.7727   16.7917 C   0  0  0  0  0  0  0  0  0  0  0  0
   12.2804   -4.5106   22.1729 C   0  0  0  0  0  0  0  0  0  0  0  0
   11.1204   -4.3345   20.1624 C   0  0  0  0  0  0  0  0  0  0  0  0
    3.2971   -8.2022   16.0081 C   0  0  0  0  0  0  0  0  0  0  0  0
   11.2211   -3.2888   22.9652 O   0  0  0  0  0  0  0  0  0  0  0  0
   13.0207   -3.0189   14.3076 C   0  0  0  0  0  0  0  0  0  0  0  0
   11.0210   -3.4126   22.3418 C   0  0  0  0  0  0  0  0  0  0  0  0
   11.8859   -3.4214   16.2349 C   0  0  0  0  0  0  0  0  0  0  0  0
    6.5481   -9.1310   15.5962 C   0  0  0  0  0  0  0  0  0  0  0  0
    2.0908   -7.9431   15.7297 C   0  0  0  0  0  0  0  0  0  0  0  0
    6.6244   -8.2869   16.8916 C   0  0  0  0  0  0  0  0  0  0  0  0
   10.8158   -4.3237   18.2015 C   0  0  0  0  0  0  0  0  0  0  0  0
    8.8423   -7.9627   17.6544 C   0  0  0  0  0  0  0  0  0  0  0  0
   10.3822   -5.3264   19.5230 C   0  0  0  0  0  0  0  0  0  0  0  0
    9.4770   -5.9854   18.1013 C   0  0  0  0  0  0  0  0  0  0  0  0
    3.8600   -8.5335   16.6232 C   0  0  0  0  0  0  0  0  0  0  0  0
   -0.0057   -8.0160   15.9605 C   0  0  0  0  0  0  0  0  0  0  0  0
    1.1698   -8.9671   16.7415 C   0  0  0  0  0  0  0  0  0  0  0  0
    6.5443   -8.2452   16.8577 C   0  0  0  0  0  0  0  0  0  0  0  0
    5.3358   -8.1121   16.9848 C   0  0  0  0  0  0  0  0  0  0  0  0
    8.7194   -6.4356   17.7276 C   0  0  0  0  0  0  0  0  0  0  0  0
    9.7974   -4.3638   16.5955 C   0  0  0  0  0  0  0  0  0  0  0  0
    9.9553   -3.9960   16.2357 C   0  0  0  0  0  0  0  0  0  0  0  0
    7.8344   -8.4701   15.6965 C   0  0  0  0  0  0  0  0  0  0  0  0
   12.5116   -2.8912   15.0917 C   0  0  0  0  0  0  0  0  0  0  0  0
   13.1426   -3.5734   15.2693 O   0  0  0  0  0  0  0  0  0  0  0  0
    0.5404   -9.1644   17.1162 C   0  0  0  0  0  0  0  0  0  0  0  0
  1 10  4  0
  1 14  4  0
  2 13  2  0
  3 29  4  0
  3 30  4  0
  4  9  4  0
  4 10  4  0
  6 15  4  0
  6 19  4  0
  7 25  4  0
  7 34  1  0
  8 26  1  0
 11 17  4  0
 11 23  4  0
 12 14  4  0
 16 31  4  0
 18 26  4  0
 22 28  1  0
 23 27  1  0
 26 27  1  0
 29 30  4  0
M  END
$$$$

 Created by Python create_sdf_string function

 34125  0  0  0  0  0  0  0  0999 V2000
   10.4786   -2.3901   18.9950 C   0  0  0  0  0  0  0  0  0  0  0  0
   12.1819   -2.3000   13.4454 S   0  0  0  0  0  0  0  0  0  0  0  0
   11.8137   -4.4962   20.6287 S   0  0  0  0  0  0  0  0  0  0  0  0
    4.8707   -9.3985   16.4917 I   0  0  0  0  0  0  0  0  0  0  0  0
   11.5254   -4.7582   17.4726 O   0  0  0  0  0  0  0  0  0  0  0  0
    1.7797   -9.1491   17.8006 S   0  0  0  0  0  0  0  0  0  0  0  0
    9.4144   -8.4660   17.0371 C   0  0  0  0  0  0  0  0  0  0  0  0
   12.0133   -5.1807   23.3473 F   0  0  0  0  0  0  0  0  0  0  0  0
   11.4421   -4.7104   19.9832 N   0  0  0  0  0  0  0  0  0  0  0  0
    3.6710   -7.6940   15.7155 C   0  0  0  0  0  0  0  0  0  0  0  0
   12.0608   -4.1963   22.7353 O   0  0  0  0  0  0  0  0  0  0  0  0
   12.1331   -3.6268   14.1157 C   0  0  0  0  0  0  0  0  0  0  0  0
   11.7241   -2.8205   16.4293 Se  0  0  0  0  0  0  0  0  0  0  0  0
    6.9232   -9.4048   15.6688 Cl  0  0  0  0  0  0  0  0  0  0  0  0
    1.9318   -8.9571   14.8507 C   0  0  0  0  0  0  0  0  0  0  0  0
    7.0353   -7.7131   17.1753 C   0  0  0  0  0  0  0  0  0  0  0  0
    9.3449   -4.8202   18.0428 C   0  0  0  0  0  0  0  0  0  0  0  0
    9.4114   -5.0790   20.2737 C   0  0  0  0  0  0  0  0  0  0  0  0
    9.5891   -5.2835   18.6535 C   0  0  0  0  0  0  0  0  0  0  0  0
    2.8890   -6.9560   17.1487 C   0  0  0  0  0  0  0  0  0  0  0  0
   -0.4807   -8.7724   16.5224 I   0  0  0  0  0  0  0  0  0  0  0  0
    1.0879   -9.0187   15.9563 O   0  0  0  0  0  0  0  0  0  0  0  0
    6.9693   -8.7000   17.3766 O   0  0  0  0  0  0  0  0  0  0  0  0
    6.3411   -8.4224   17.6734 C   0  0  0  0  0  0  0  0  0  0  0  0
    9.5625   -6.6509   18.2380 S   0  0  0  0  0  0  0  0  0  0  0  0
    8.8962   -4.2088   15.4359 Se  0  0  0  0  0  0  0  0  0  0  0  0
   12.1524   -2.3136   14.2347 C   0  0  0  0  0  0  0  0  0  0  0  0
   13.0488   -4.4674   15.5100 O   0  0  0  0  0  0  0  0  0  0  0  0
   10.9861   -4.2011   17.0487 He  0  0  0  0  0  0  0  0  0  0  0  0
   12.3385   -3.4360   21.9570 He  0  0  0  0  0  0  0  0  0  0  0  0
    8.1208   -8.5441   17.8151 He  0  0  0  0  0  0  0  0  0  0  0  0
    9.7599   -3.7803   17.2699 He  0  0  0  0  0  0  0  0  0  0  0  0
    8.5599   -8.7194   14.6316 He  0  0  0  0  0  0  0  0  0  0  0  0
    1.1917  -10.4954   16.2802 He  0  0  0  0  0  0  0  0  0  0  0  0
  1  8  4  0
  1 12  1  0
  1 14  1  0
  1 16  3  0
  1 19  2  0
  1 20  3  0
  1 22  1  0
  2  5  4  0
  2  6  1  0
  2  7  1  0
  2  8  2  0
  2  9  1  0
  2 11  4  0
  2 12  2  0
  2 13  2  0
  2 16  4  0
  2 22  3  0
  2 23  2  0
  2 28  3  0
  3  4  3  0
  3  7  2  0
  3  8  2  0
  3  9  2  0
  3 15  3  0
  3 17  2  0
  3 24  4  0
  3 26  3  0
  3 28  3  0
  4  6  2  0
  4  7  4  0
  4 10  2  0
  4 13  2  0
  4 14  3  0
  4 18  1  0
  4 22  3  0
  5  7  4  0
  5 18  4  0
  5 22  3  0
  5 25  4  0
  6  7  3  0
  6  9  2  0
  6 11  4  0
  6 14  4  0
  6 15  1  0
  6 20  1  0
  6 21  2  0
  6 23  4  0
  6 24  3  0
  7 11  2  0
  7 15  1  0
  7 16  1  0
  7 20  3  0
  7 22  2  0
  7 23  4  0
  7 26  2  0
  7 27  3  0
  8  9  1  0
  8 13  1  0
  8 17  4  0
  8 18  3  0
  8 19  2  0
  8 20  1  0
  8 21  3  0
  8 23  1  0
  8 24  4  0
  8 26  3  0
  8 28  1  0
  9 11  1  0
  9 14  3  0
  9 21  1  0
  9 22  1  0
  9 26  2  0
 10 14  3  0
 10 17  1  0
 10 18  2  0
 10 19  4  0
 10 20  3  0
 10 25  1  0
 10 28  3  0
 11 16  1  0
 11 20  1  0
 11 22  3  0
 11 24  4  0
 12 16  2  0
 12 22  3  0
 12 25  2  0
 12 26  1  0
 13 15  2  0
 13 18  4  0
 13 19  1  0
 13 22  1  0
 14 16  3  0
 14 19  4  0
 14 20  2  0
 14 27  3  0
 14 28  1  0
 15 18  1  0
 15 21  2  0
 16 19  1  0
 16 20  4  0
 16 23  4  0
 16 27  2  0
 17 21  3  0
 17 23  4  0
 17 28  3  0
 18 21  3  0
 18 24  1  0
 18 25  4  0
 18 28  4  0
 19 21  2  0
 19 22  1  0
 19 25  1  0
 19 27  2  0
 20 21  3  0
 20 22  1  0
 20 25  2  0
 20 27  3  0
 21 22  4  0
 22 24  2  0
 22 25  2  0
 22 26  2  0
 22 27  3  0
 25 26  3  0
 26 28  4  0
 27 28  2  0
M  END
$$$$

 Created by Python create_sdf_string function

 34 17  0  0  0  0  0  0  0  0999 V2000
   11.1192   -3.3795   19.5029 C   0  0  0  0  0  0  0  0  0  0  0  0
   12.5465   -2.8200   13.4260 O   0  0  0  0  0  0  0  0  0  0  0  0
   11.1864   -3.8575   16.9234 C   0  0  0  0  0  0  0  0  0  0  0  0
   11.7170   -4.4959   21.1825 C   0  0  0  0  0  0  0  0  0  0  0  0
    4.6859   -8.6987   16.3424 C   0  0  0  0  0  0  0  0  0  0  0  0
   10.9680   -4.3374   17.9892 C   0  0  0  0  0  0  0  0  0  0  0  0
    1.9782   -9.2369   16.7508 C   0  0  0  0  0  0  0  0  0  0  0  0
    8.7598   -8.0613   17.3420 C   0  0  0  0  0  0  0  0  0  0  0  0
   11.7223   -4.8421   22.9872 O   0  0  0  0  0  0  0  0  0  0  0  0
   11.3515   -4.5695   20.6492 C   0  0  0  0  0  0  0  0  0  0  0  0
    3.8676   -8.3071   16.1737 C   0  0  0  0  0  0  0  0  0  0  0  0
   11.8347   -3.9248   22.5117 C   0  0  0  0  0  0  0  0  0  0  0  0
   12.3872   -3.1860   14.2281 C   0  0  0  0  0  0  0  0  0  0  0  0
   11.8066   -3.7129   21.9829 C   0  0  0  0  0  0  0  0  0  0  0  0
   11.7366   -3.3625   16.1250 C   0  0  0  0  0  0  0  0  0  0  0  0
    6.5698   -8.7751   15.6355 C   0  0  0  0  0  0  0  0  0  0  0  0
    2.0820   -8.9797   15.6077 C   0  0  0  0  0  0  0  0  0  0  0  0
    7.4731   -7.9650   17.0750 C   0  0  0  0  0  0  0  0  0  0  0  0
    9.6679   -5.0239   17.4474 C   0  0  0  0  0  0  0  0  0  0  0  0
    8.2458   -7.6633   17.7685 C   0  0  0  0  0  0  0  0  0  0  0  0
   10.4923   -4.8089   20.0902 C   0  0  0  0  0  0  0  0  0  0  0  0
    9.8176   -5.7465   18.5685 C   0  0  0  0  0  0  0  0  0  0  0  0
    2.6740   -7.7750   16.4245 C   0  0  0  0  0  0  0  0  0  0  0  0
    0.1349   -8.7527   16.2909 C   0  0  0  0  0  0  0  0  0  0  0  0
    0.9091   -9.1252   16.2739 C   0  0  0  0  0  0  0  0  0  0  0  0
    6.5064   -8.0931   17.4986 C   0  0  0  0  0  0  0  0  0  0  0  0
    5.9452   -8.2277   17.2372 C   0  0  0  0  0  0  0  0  0  0  0  0
    9.6604   -6.3951   18.5318 C   0  0  0  0  0  0  0  0  0  0  0  0
   10.3935   -3.8502   16.1448 C   0  0  0  0  0  0  0  0  0  0  0  0
    9.4093   -4.1406   16.0370 C   0  0  0  0  0  0  0  0  0  0  0  0
    7.9218   -8.4499   15.3400 C   0  0  0  0  0  0  0  0  0  0  0  0
   12.6342   -2.9410   14.3382 C   0  0  0  0  0  0  0  0  0  0  0  0
   13.0307   -3.5365   15.0429 O   0  0  0  0  0  0  0  0  0  0  0  0
    0.9021   -9.8655   16.6847 C   0  0  0  0  0  0  0  0  0  0  0  0
  2 13  2  0
  3  6  4  0
  3 15  4  0
  5 11  1  0
  8 20  1  0
 11 23  4  0
 12 14  4  0
 15 29  4  0
 16 31  4  0
 18 20  1  0
 18 26  4  0
 19 22  4  0
 19 30  4  0
 22 28  1  0
 24 25  1  0
 26 27  4  0
 29 30  4  0
M  END
$$$$

 Created by Python create_sdf_string function

 34 68  0  0  0  0  0  0  0  0999 V2000
   11.6130   -4.1657   18.9200 F   0  0  0  0  0  0  0  0  0  0  0  0
   10.5171   -3.3019   16.8322 C   0  0  0  0  0  0  0  0  0  0  0  0
    2.6357   -8.6815   15.5981 C   0  0  0  0  0  0  0  0  0  0  0  0
    1.9791   -8.4290   16.5864 C   0  0  0  0  0  0  0  0  0  0  0  0
    9.0350   -8.3612   17.3127 C   0  0  0  0  0  0  0  0  0  0  0  0
   11.6879   -3.3070   21.4035 Cl  0  0  0  0  0  0  0  0  0  0  0  0
    2.3770   -7.4102   14.6640 C   0  0  0  0  0  0  0  0  0  0  0  0
   12.0378   -3.2579   15.9671 F   0  0  0  0  0  0  0  0  0  0  0  0
   12.3533   -4.2479   21.8606 C   0  0  0  0  0  0  0  0  0  0  0  0
   12.5960   -3.9879   16.0428 C   0  0  0  0  0  0  0  0  0  0  0  0
    6.1260   -7.6860   15.5188 Cl  0  0  0  0  0  0  0  0  0  0  0  0
    1.7769   -9.6700   14.7572 C   0  0  0  0  0  0  0  0  0  0  0  0
    6.8910   -8.7101   17.3472 C   0  0  0  0  0  0  0  0  0  0  0  0
    9.7682   -3.5412   17.0812 N   0  0  0  0  0  0  0  0  0  0  0  0
    5.6822   -8.0250   17.0205 C   0  0  0  0  0  0  0  0  0  0  0  0
    9.6803   -6.9791   17.7947 P   0  0  0  0  0  0  0  0  0  0  0  0
   10.8026   -2.2715   15.3371 Cl  0  0  0  0  0  0  0  0  0  0  0  0
    9.3664   -5.5337   14.8679 N   0  0  0  0  0  0  0  0  0  0  0  0
    8.2887   -9.1019   14.2546 C   0  0  0  0  0  0  0  0  0  0  0  0
   13.5224   -3.1222   15.5105 C   0  0  0  0  0  0  0  0  0  0  0  0
   14.0356   -2.9710   14.9372 O   0  0  0  0  0  0  0  0  0  0  0  0
   -0.1792   -9.4646   16.4974 C   0  0  0  0  0  0  0  0  0  0  0  0
   12.2507   -3.7237   13.2040 He  0  0  0  0  0  0  0  0  0  0  0  0
   11.2702   -5.2323   22.6360 He  0  0  0  0  0  0  0  0  0  0  0  0
   10.6301   -5.1608   18.6058 He  0  0  0  0  0  0  0  0  0  0  0  0
   12.0290   -4.7356   23.1423 He  0  0  0  0  0  0  0  0  0  0  0  0
   11.9753   -3.8216   22.5840 He  0  0  0  0  0  0  0  0  0  0  0  0
    8.6884   -6.8763   17.5741 He  0  0  0  0  0  0  0  0  0  0  0  0
   11.3337   -4.7085   20.3223 He  0  0  0  0  0  0  0  0  0  0  0  0
    9.6375   -5.8553   19.6161 He  0  0  0  0  0  0  0  0  0  0  0  0
    2.6267   -6.7539   16.4489 He  0  0  0  0  0  0  0  0  0  0  0  0
   -0.1840   -8.4370   17.7648 He  0  0  0  0  0  0  0  0  0  0  0  0
    1.6957   -8.9858   14.8080 He  0  0  0  0  0  0  0  0  0  0  0  0
    6.6222   -7.6910   17.8316 He  0  0  0  0  0  0  0  0  0  0  0  0
  1  4  3  0
  1  9  3  0
  1 14  3  0
  1 19  3  0
  2  4  2  0
  2  5  2  0
  2  6  3  0
  2  9  1  0
  2 13  1  0
  2 17  4  0
  2 21  3  0
  3  4  2  0
  3 15  3  0
  3 18  4  0
  3 19  4  0
  4  7  1  0
  4  9  2  0
  4 11  4  0
  4 19  3  0
  4 20  4  0
  5  6  4  0
  5  8  4  0
  5 13  3  0
  5 14  1  0
  5 15  3  0
  5 22  2  0
  6  8  2  0
  6  9  4  0
  6 11  2  0
  6 14  1  0
  6 15  4  0
  6 18  4  0
  6 20  4  0
  7  8  3  0
  7  9  3  0
  7 10  3  0
  7 20  1  0
  7 22  1  0
  8 11  4  0
  8 14  2  0
  8 16  2  0
  8 17  3  0
  9 11  2  0
  9 12  3  0
  9 16  2  0
  9 17  1  0
  9 21  4  0
 10 11  2  0
 10 12  2  0
 10 14  4  0
 10 15  4  0
 10 17  1  0
 10 18  1  0
 10 20  3  0
 11 13  1  0
 11 15  2  0
 12 17  3  0
 13 14  3  0
 14 18  4  0
 14 19  3  0
 14 20  1  0
 15 20  4  0
 15 22  4  0
 17 21  4  0
 18 20  3  0
 18 21  1  0
 18 22  1  0
 19 22  2  0
M  END
$$$$

 Created by Python create_sdf_string function

 34 18  0  0  0  0  0  0  0  0999 V2000
   11.1545   -4.4218   19.4184 C   0  0  0  0  0  0  0  0  0  0  0  0
   12.6004   -3.1363   13.7198 C   0  0  0  0  0  0  0  0  0  0  0  0
   10.7276   -3.9815   16.8959 C   0  0  0  0  0  0  0  0  0  0  0  0
   11.4344   -4.8986   22.4842 C   0  0  0  0  0  0  0  0  0  0  0  0
    3.2401   -8.5505   16.3227 C   0  0  0  0  0  0  0  0  0  0  0  0
   10.5761   -4.9094   18.4473 C   0  0  0  0  0  0  0  0  0  0  0  0
    1.9602   -8.6955   16.4120 C   0  0  0  0  0  0  0  0  0  0  0  0
    8.5224   -8.0400   17.2321 C   0  0  0  0  0  0  0  0  0  0  0  0
   12.0312   -4.3365   23.1630 O   0  0  0  0  0  0  0  0  0  0  0  0
   11.5905   -3.4088   21.4581 C   0  0  0  0  0  0  0  0  0  0  0  0
    2.7363   -7.6567   15.6207 C   0  0  0  0  0  0  0  0  0  0  0  0
   11.8698   -3.7556   22.4785 C   0  0  0  0  0  0  0  0  0  0  0  0
   11.9875   -3.3893   15.0859 C   0  0  0  0  0  0  0  0  0  0  0  0
   12.0670   -4.2691   21.7474 C   0  0  0  0  0  0  0  0  0  0  0  0
   12.1434   -3.6723   16.1253 C   0  0  0  0  0  0  0  0  0  0  0  0
    6.1053   -8.1777   16.0849 C   0  0  0  0  0  0  0  0  0  0  0  0
    1.7124   -9.0140   15.2443 C   0  0  0  0  0  0  0  0  0  0  0  0
    7.0158   -8.1226   16.9921 C   0  0  0  0  0  0  0  0  0  0  0  0
   10.0533   -4.3547   16.9971 N   0  0  0  0  0  0  0  0  0  0  0  0
    8.5755   -7.1063   17.3944 C   0  0  0  0  0  0  0  0  0  0  0  0
   11.3094   -4.4612   20.2815 C   0  0  0  0  0  0  0  0  0  0  0  0
   10.1852   -5.8023   19.1886 C   0  0  0  0  0  0  0  0  0  0  0  0
    3.1405   -7.4594   15.8640 C   0  0  0  0  0  0  0  0  0  0  0  0
   -0.0020   -9.0245   16.9334 C   0  0  0  0  0  0  0  0  0  0  0  0
    1.1595   -9.0639   15.3496 C   0  0  0  0  0  0  0  0  0  0  0  0
    6.6079   -7.6240   17.4081 C   0  0  0  0  0  0  0  0  0  0  0  0
    5.1577   -8.1109   16.7036 C   0  0  0  0  0  0  0  0  0  0  0  0
    9.3498   -6.2886   17.7674 C   0  0  0  0  0  0  0  0  0  0  0  0
   11.3479   -3.5444   15.4583 C   0  0  0  0  0  0  0  0  0  0  0  0
    9.0690   -5.4221   16.1741 N   0  0  0  0  0  0  0  0  0  0  0  0
    7.8187   -8.3326   15.4224 C   0  0  0  0  0  0  0  0  0  0  0  0
   13.1618   -3.1332   15.3829 C   0  0  0  0  0  0  0  0  0  0  0  0
   13.5391   -2.9683   14.6091 N   0  0  0  0  0  0  0  0  0  0  0  0
    0.0410   -9.3911   16.5750 C   0  0  0  0  0  0  0  0  0  0  0  0
  1  6  4  0
  1 21  4  0
  2 13  4  0
  2 33  4  0
  3  6  4  0
  3 19  4  0
  3 29  4  0
  5  7  4  0
  8 20  1  0
 11 23  4  0
 13 29  4  0
 15 32  4  0
 16 18  1  0
 16 27  1  0
 19 30  4  0
 20 28  4  0
 24 34  1  0
 32 33  4  0
M  END
$$$$

 Created by Python create_sdf_string function

 34 40  0  0  0  0  0  0  0  0999 V2000
    9.0798   -3.4972   15.6637 N   0  0  0  0  0  0  0  0  0  0  0  0
    4.2414   -8.3212   16.8267 N   0  0  0  0  0  0  0  0  0  0  0  0
   10.1575   -4.6682   18.5516 Br  0  0  0  0  0  0  0  0  0  0  0  0
    1.6842   -8.1092   16.1000 N   0  0  0  0  0  0  0  0  0  0  0  0
    8.9475   -7.6559   17.1179 O   0  0  0  0  0  0  0  0  0  0  0  0
   12.1503   -3.3032   22.5043 O   0  0  0  0  0  0  0  0  0  0  0  0
   12.4293   -3.9515   22.6074 C   0  0  0  0  0  0  0  0  0  0  0  0
   12.7065   -3.8661   21.3597 C   0  0  0  0  0  0  0  0  0  0  0  0
    0.4531   -8.8790   14.1260 C   0  0  0  0  0  0  0  0  0  0  0  0
   10.6679   -4.9516   16.5655 O   0  0  0  0  0  0  0  0  0  0  0  0
   11.7889   -5.0138   19.7893 C   0  0  0  0  0  0  0  0  0  0  0  0
    9.5209   -5.8098   18.3066 C   0  0  0  0  0  0  0  0  0  0  0  0
    4.8183   -8.0346   17.4567 C   0  0  0  0  0  0  0  0  0  0  0  0
    8.2020   -8.9686   16.3207 N   0  0  0  0  0  0  0  0  0  0  0  0
   11.3706   -3.1499   16.3983 C   0  0  0  0  0  0  0  0  0  0  0  0
   -0.9906   -8.5179   16.6603 C   0  0  0  0  0  0  0  0  0  0  0  0
   10.9793   -4.1859   19.2859 He  0  0  0  0  0  0  0  0  0  0  0  0
   12.6327   -4.1997   13.9393 He  0  0  0  0  0  0  0  0  0  0  0  0
   11.4805   -5.1564   22.3469 He  0  0  0  0  0  0  0  0  0  0  0  0
   10.7733   -2.7066   20.8280 He  0  0  0  0  0  0  0  0  0  0  0  0
    2.4118   -7.1121   15.2674 He  0  0  0  0  0  0  0  0  0  0  0  0
   11.9230   -3.2778   14.9178 He  0  0  0  0  0  0  0  0  0  0  0  0
   13.0284   -5.0439   15.3491 He  0  0  0  0  0  0  0  0  0  0  0  0
    6.8093   -8.3481   15.5348 He  0  0  0  0  0  0  0  0  0  0  0  0
    7.1644   -8.2580   16.8056 He  0  0  0  0  0  0  0  0  0  0  0  0
    9.0939   -7.0222   18.1467 He  0  0  0  0  0  0  0  0  0  0  0  0
    3.5974   -8.1048   16.6238 He  0  0  0  0  0  0  0  0  0  0  0  0
    0.4056  -10.1616   16.0251 He  0  0  0  0  0  0  0  0  0  0  0  0
    0.9043   -9.2757   14.9851 He  0  0  0  0  0  0  0  0  0  0  0  0
    4.9945   -6.8089   15.3879 He  0  0  0  0  0  0  0  0  0  0  0  0
    9.4356   -5.8412   17.4213 He  0  0  0  0  0  0  0  0  0  0  0  0
   12.0415   -2.9589   15.4639 He  0  0  0  0  0  0  0  0  0  0  0  0
   10.3821   -4.9008   15.9764 He  0  0  0  0  0  0  0  0  0  0  0  0
   13.9332   -2.9333   12.9833 He  0  0  0  0  0  0  0  0  0  0  0  0
  1  2  2  0
  1 10  2  0
  1 11  3  0
  1 13  2  0
  1 15  1  0
  2  4  4  0
  2  5  2  0
  2  7  3  0
  2  8  3  0
  2 14  1  0
  3 10  1  0
  3 12  4  0
  3 13  3  0
  4  9  2  0
  4 10  1  0
  4 11  2  0
  4 15  3  0
  6  7  4  0
  6  9  3  0
  6 11  3  0
  6 12  4  0
  6 14  2  0
  7  9  4  0
  7 10  4  0
  7 11  1  0
  7 12  2  0
  7 15  4  0
  7 16  4  0
  8 14  4  0
  8 16  3  0
  9 11  2  0
  9 12  1  0
  9 14  4  0
  9 16  4  0
 10 11  1  0
 10 16  4  0
 11 12  4  0
 11 13  3  0
 11 14  4  0
 12 15  2  0
M  END
$$$$

 Created by Python create_sdf_string function

 34 23  0  0  0  0  0  0  0  0999 V2000
   10.9765   -4.2416   19.7830 C   0  0  0  0  0  0  0  0  0  0  0  0
   13.0511   -3.3271   14.2187 C   0  0  0  0  0  0  0  0  0  0  0  0
    9.5610   -3.6750   15.7853 N   0  0  0  0  0  0  0  0  0  0  0  0
   11.6184   -4.7549   22.1572 C   0  0  0  0  0  0  0  0  0  0  0  0
    4.0996   -8.4248   16.4934 C   0  0  0  0  0  0  0  0  0  0  0  0
   10.3768   -4.8683   18.5369 C   0  0  0  0  0  0  0  0  0  0  0  0
    1.9553   -8.8137   16.0836 C   0  0  0  0  0  0  0  0  0  0  0  0
    8.9474   -7.6344   17.4462 O   0  0  0  0  0  0  0  0  0  0  0  0
   12.1567   -3.3191   22.9315 O   0  0  0  0  0  0  0  0  0  0  0  0
   11.0701   -3.3410   20.5931 C   0  0  0  0  0  0  0  0  0  0  0  0
    2.4062   -7.8729   15.6144 C   0  0  0  0  0  0  0  0  0  0  0  0
   12.0576   -3.9758   22.3268 C   0  0  0  0  0  0  0  0  0  0  0  0
   11.6253   -3.2871   14.8543 C   0  0  0  0  0  0  0  0  0  0  0  0
   11.9433   -3.9227   21.6086 C   0  0  0  0  0  0  0  0  0  0  0  0
   13.1601   -4.0224   15.5181 O   0  0  0  0  0  0  0  0  0  0  0  0
    6.6381   -8.0860   16.1370 C   0  0  0  0  0  0  0  0  0  0  0  0
    0.7247   -8.4286   14.9006 C   0  0  0  0  0  0  0  0  0  0  0  0
    6.8172   -8.1094   16.6424 C   0  0  0  0  0  0  0  0  0  0  0  0
   10.4546   -4.5721   17.1847 C   0  0  0  0  0  0  0  0  0  0  0  0
    9.0274   -7.1555   17.8014 C   0  0  0  0  0  0  0  0  0  0  0  0
   11.4604   -5.2584   20.1738 C   0  0  0  0  0  0  0  0  0  0  0  0
   10.2098   -5.6223   18.7092 C   0  0  0  0  0  0  0  0  0  0  0  0
    3.7357   -8.2639   16.4162 C   0  0  0  0  0  0  0  0  0  0  0  0
    0.3897   -9.7565   16.2148 C   0  0  0  0  0  0  0  0  0  0  0  0
    1.0519   -9.0789   15.3308 C   0  0  0  0  0  0  0  0  0  0  0  0
    5.2701   -7.3595   15.7158 C   0  0  0  0  0  0  0  0  0  0  0  0
    4.9286   -8.3155   17.2156 C   0  0  0  0  0  0  0  0  0  0  0  0
    9.1289   -6.2398   17.2864 C   0  0  0  0  0  0  0  0  0  0  0  0
   11.9999   -3.2459   15.1768 C   0  0  0  0  0  0  0  0  0  0  0  0
   10.2156   -4.5215   16.5826 C   0  0  0  0  0  0  0  0  0  0  0  0
    7.8166   -8.2752   16.5413 C   0  0  0  0  0  0  0  0  0  0  0  0
   11.5716   -3.7391   16.3999 C   0  0  0  0  0  0  0  0  0  0  0  0
   13.5180   -2.9725   13.5030 C   0  0  0  0  0  0  0  0  0  0  0  0
   -0.1916   -9.2362   15.7392 C   0  0  0  0  0  0  0  0  0  0  0  0
  1  6  4  0
  1 10  4  0
  1 21  4  0
  2 33  1  0
  3 13  4  0
  4 12  1  0
  5 23  4  0
  6 22  4  0
  8 20  2  0
  9 12  2  0
 11 23  4  0
 12 14  1  0
 13 29  4  0
 15 32  4  0
 16 18  1  0
 16 31  1  0
 17 34  4  0
 18 31  4  0
 19 30  4  0
 20 28  4  0
 21 22  4  0
 23 27  4  0
 24 34  4  0
M  END
$$$$

 Created by Python create_sdf_string function

 34 86  0  0  0  0  0  0  0  0999 V2000
   13.5014   -1.8803   14.9624 C   0  0  0  0  0  0  0  0  0  0  0  0
    4.1900   -9.1557   16.2018 P   0  0  0  0  0  0  0  0  0  0  0  0
   10.4827   -3.5860   18.4846 O   0  0  0  0  0  0  0  0  0  0  0  0
    1.9857   -8.6729   16.1645 C   0  0  0  0  0  0  0  0  0  0  0  0
   12.5860   -3.4170   23.3378 P   0  0  0  0  0  0  0  0  0  0  0  0
   12.2054   -1.9772   20.4198 C   0  0  0  0  0  0  0  0  0  0  0  0
    0.9939   -7.7422   16.0844 O   0  0  0  0  0  0  0  0  0  0  0  0
   11.2896   -4.6480   21.9515 C   0  0  0  0  0  0  0  0  0  0  0  0
   12.1038   -4.5565   22.6120 C   0  0  0  0  0  0  0  0  0  0  0  0
   12.4840   -5.3494   15.1867 C   0  0  0  0  0  0  0  0  0  0  0  0
    6.3781   -8.7361   15.4626 C   0  0  0  0  0  0  0  0  0  0  0  0
   -0.9121  -10.1770   14.9576 N   0  0  0  0  0  0  0  0  0  0  0  0
   10.8747   -3.7004   17.0890 C   0  0  0  0  0  0  0  0  0  0  0  0
    9.5266   -7.3222   19.8855 N   0  0  0  0  0  0  0  0  0  0  0  0
   11.3430   -7.3623   19.5187 C   0  0  0  0  0  0  0  0  0  0  0  0
   10.4526   -5.7726   19.5047 C   0  0  0  0  0  0  0  0  0  0  0  0
    1.0810   -9.3921   16.2000 N   0  0  0  0  0  0  0  0  0  0  0  0
    0.2688   -8.8995   15.7026 C   0  0  0  0  0  0  0  0  0  0  0  0
    5.7114   -7.6213   16.0929 S   0  0  0  0  0  0  0  0  0  0  0  0
    5.3256   -8.1152   18.2908 C   0  0  0  0  0  0  0  0  0  0  0  0
   11.4315   -3.2677   15.2560 C   0  0  0  0  0  0  0  0  0  0  0  0
    9.5440   -4.3518   16.2738 O   0  0  0  0  0  0  0  0  0  0  0  0
   11.5952   -4.3746   16.1137 C   0  0  0  0  0  0  0  0  0  0  0  0
   -1.1368   -8.2909   16.6028 C   0  0  0  0  0  0  0  0  0  0  0  0
   10.7436   -4.9205   20.1506 He  0  0  0  0  0  0  0  0  0  0  0  0
   10.2031   -3.2792   15.4387 He  0  0  0  0  0  0  0  0  0  0  0  0
   12.1654   -4.0498   23.7413 He  0  0  0  0  0  0  0  0  0  0  0  0
    9.0258   -8.3594   16.6471 He  0  0  0  0  0  0  0  0  0  0  0  0
   11.5597   -2.6982   15.4909 He  0  0  0  0  0  0  0  0  0  0  0  0
    5.2755   -8.2785   17.3756 He  0  0  0  0  0  0  0  0  0  0  0  0
    4.3894   -8.8105   16.1644 He  0  0  0  0  0  0  0  0  0  0  0  0
    8.5279   -7.0556   17.2243 He  0  0  0  0  0  0  0  0  0  0  0  0
    6.5048   -8.9151   16.3543 He  0  0  0  0  0  0  0  0  0  0  0  0
   14.0543   -3.2708   13.7196 He  0  0  0  0  0  0  0  0  0  0  0  0
  1  2  2  0
  1  9  4  0
  1 13  2  0
  1 15  1  0
  1 16  4  0
  2  4  4  0
  2  6  4  0
  2  7  4  0
  2 11  2  0
  2 12  4  0
  2 15  3  0
  2 16  1  0
  2 19  2  0
  2 22  3  0
  2 23  2  0
  3  5  4  0
  3  7  1  0
  3 11  1  0
  3 16  1  0
  3 17  1  0
  3 19  3  0
  3 23  2  0
  4  5  1  0
  4  6  1  0
  4  7  3  0
  4  8  1  0
  4 11  3  0
  4 16  3  0
  4 18  4  0
  4 22  4  0
  5  7  2  0
  5  8  2  0
  5 12  4  0
  5 16  4  0
  5 21  3  0
  6 13  1  0
  6 15  4  0
  6 21  2  0
  6 24  3  0
  7  8  3  0
  7  9  2  0
  7 16  4  0
  7 17  2  0
  7 20  2  0
  8  9  4  0
  8 10  3  0
  8 11  2  0
  8 12  1  0
  8 17  4  0
  8 21  2  0
  8 22  4  0
  9 20  2  0
  9 22  2  0
  9 24  4  0
 10 11  4  0
 10 15  2  0
 10 18  3  0
 10 20  1  0
 11 12  3  0
 11 13  2  0
 11 21  3  0
 11 22  3  0
 12 13  2  0
 12 18  1  0
 12 19  4  0
 12 23  2  0
 12 24  4  0
 13 18  2  0
 13 19  1  0
 13 22  4  0
 14 19  2  0
 14 23  3  0
 14 24  1  0
 15 16  4  0
 15 18  2  0
 15 20  4  0
 16 20  1  0
 16 24  4  0
 17 18  1  0
 17 20  4  0
 17 23  3  0
 17 24  2  0
 18 21  2  0
 18 23  4  0
 21 23  2  0
 22 24  4  0
M  END
$$$$

 Created by Python create_sdf_string function

 34 27  0  0  0  0  0  0  0  0999 V2000
   11.1329   -4.3282   20.3941 C   0  0  0  0  0  0  0  0  0  0  0  0
   13.4774   -2.2897   14.8320 C   0  0  0  0  0  0  0  0  0  0  0  0
   10.1037   -3.5983   15.6815 C   0  0  0  0  0  0  0  0  0  0  0  0
   11.9887   -3.7142   23.3021 C   0  0  0  0  0  0  0  0  0  0  0  0
    3.3504   -8.5447   16.2641 C   0  0  0  0  0  0  0  0  0  0  0  0
   10.7773   -4.1882   18.9445 C   0  0  0  0  0  0  0  0  0  0  0  0
    2.1101   -8.8162   16.0795 C   0  0  0  0  0  0  0  0  0  0  0  0
    8.8519   -7.9496   17.2118 C   0  0  0  0  0  0  0  0  0  0  0  0
   11.9414   -3.2013   22.4129 C   0  0  0  0  0  0  0  0  0  0  0  0
   11.5274   -3.2304   21.0303 C   0  0  0  0  0  0  0  0  0  0  0  0
    1.2370   -7.8845   16.2168 C   0  0  0  0  0  0  0  0  0  0  0  0
   11.2153   -5.0424   21.4476 C   0  0  0  0  0  0  0  0  0  0  0  0
   12.4275   -2.8985   15.1643 C   0  0  0  0  0  0  0  0  0  0  0  0
   11.6004   -4.8566   22.6496 C   0  0  0  0  0  0  0  0  0  0  0  0
   12.2939   -4.1228   16.2278 C   0  0  0  0  0  0  0  0  0  0  0  0
    6.6860   -8.5561   16.0170 C   0  0  0  0  0  0  0  0  0  0  0  0
   -0.7729   -9.7833   15.3980 N   0  0  0  0  0  0  0  0  0  0  0  0
    5.3158   -8.1436   17.3834 C   0  0  0  0  0  0  0  0  0  0  0  0
   10.7680   -4.2892   17.4787 C   0  0  0  0  0  0  0  0  0  0  0  0
    9.6897   -6.7687   18.6022 N   0  0  0  0  0  0  0  0  0  0  0  0
   10.6631   -6.0675   19.1600 C   0  0  0  0  0  0  0  0  0  0  0  0
   10.3651   -5.6658   18.9535 C   0  0  0  0  0  0  0  0  0  0  0  0
    4.2008   -8.4587   16.6343 C   0  0  0  0  0  0  0  0  0  0  0  0
    0.8304   -9.0711   16.0938 N   0  0  0  0  0  0  0  0  0  0  0  0
    0.3861   -9.3931   15.7487 C   0  0  0  0  0  0  0  0  0  0  0  0
    6.2653   -7.7767   16.4351 C   0  0  0  0  0  0  0  0  0  0  0  0
    5.4577   -8.1402   17.7007 C   0  0  0  0  0  0  0  0  0  0  0  0
    8.6964   -7.4323   17.4546 C   0  0  0  0  0  0  0  0  0  0  0  0
   11.5200   -3.1835   15.1177 C   0  0  0  0  0  0  0  0  0  0  0  0
    9.7136   -4.5669   16.7654 C   0  0  0  0  0  0  0  0  0  0  0  0
    6.9553   -8.4299   16.3473 C   0  0  0  0  0  0  0  0  0  0  0  0
   11.9643   -3.8406   16.1555 C   0  0  0  0  0  0  0  0  0  0  0  0
   13.7559   -3.0021   13.9133 O   0  0  0  0  0  0  0  0  0  0  0  0
   -0.5926   -8.1847   16.3028 C   0  0  0  0  0  0  0  0  0  0  0  0
  1  6  1  0
  1 10  4  0
  1 12  4  0
  2 13  1  0
  3 29  4  0
  3 30  4  0
  4  9  4  0
  4 14  4  0
  5  7  4  0
  5 23  1  0
  6 19  4  0
  6 22  4  0
  8 28  1  0
  9 10  4  0
 12 14  4  0
 13 29  4  0
 15 32  4  0
 16 26  4  0
 16 31  4  0
 17 25  1  0
 18 23  4  0
 18 27  4  0
 19 30  4  0
 20 22  4  0
 21 22  4  0
 23 27  4  0
 24 25  1  0
M  END
$$$$

 Created by Python create_sdf_string function

 34 71  0  0  0  0  0  0  0  0999 V2000
   11.8350   -4.0258   20.2239 C   0  0  0  0  0  0  0  0  0  0  0  0
   14.7032   -1.9962   14.6924 I   0  0  0  0  0  0  0  0  0  0  0  0
    8.8048   -3.4035   15.6901 C   0  0  0  0  0  0  0  0  0  0  0  0
    3.4435   -8.6313   16.3637 N   0  0  0  0  0  0  0  0  0  0  0  0
    9.9234   -3.4956   18.8428 C   0  0  0  0  0  0  0  0  0  0  0  0
    1.1907   -9.2150   15.5553 F   0  0  0  0  0  0  0  0  0  0  0  0
    8.3377   -8.8235   18.0200 C   0  0  0  0  0  0  0  0  0  0  0  0
    1.4461   -7.1917   16.3949 C   0  0  0  0  0  0  0  0  0  0  0  0
   11.5589   -5.8541   20.8292 S   0  0  0  0  0  0  0  0  0  0  0  0
   12.7714   -2.9879   14.2692 N   0  0  0  0  0  0  0  0  0  0  0  0
   11.8327   -6.2609   23.3613 C   0  0  0  0  0  0  0  0  0  0  0  0
   11.5422   -3.6650   16.8728 C   0  0  0  0  0  0  0  0  0  0  0  0
    6.8034   -8.7120   16.5225 Br  0  0  0  0  0  0  0  0  0  0  0  0
   10.8669   -4.9366   18.0736 C   0  0  0  0  0  0  0  0  0  0  0  0
   10.3694   -4.6683   18.3108 P   0  0  0  0  0  0  0  0  0  0  0  0
    0.7335   -8.4301   15.4302 O   0  0  0  0  0  0  0  0  0  0  0  0
    1.8200   -9.2214   17.2013 Se  0  0  0  0  0  0  0  0  0  0  0  0
    6.5339   -8.3009   17.0654 F   0  0  0  0  0  0  0  0  0  0  0  0
    4.7291   -7.1079   16.3661 C   0  0  0  0  0  0  0  0  0  0  0  0
   12.6218   -3.6243   16.0449 C   0  0  0  0  0  0  0  0  0  0  0  0
    9.7408   -3.6943   17.9363 C   0  0  0  0  0  0  0  0  0  0  0  0
    6.7300   -8.1579   16.1679 Se  0  0  0  0  0  0  0  0  0  0  0  0
   11.9818   -3.1384   16.2299 C   0  0  0  0  0  0  0  0  0  0  0  0
   12.4834   -3.1387   23.2951 He  0  0  0  0  0  0  0  0  0  0  0  0
   12.2037   -3.0236   21.7207 He  0  0  0  0  0  0  0  0  0  0  0  0
   10.1918   -2.5114   21.1299 He  0  0  0  0  0  0  0  0  0  0  0  0
   -1.2551  -10.7185   15.2533 He  0  0  0  0  0  0  0  0  0  0  0  0
    5.0926   -6.8772   17.2507 He  0  0  0  0  0  0  0  0  0  0  0  0
   10.2210   -7.4654   19.9475 He  0  0  0  0  0  0  0  0  0  0  0  0
   12.3250   -6.0526   19.7905 He  0  0  0  0  0  0  0  0  0  0  0  0
    3.9654   -9.3001   16.8817 He  0  0  0  0  0  0  0  0  0  0  0  0
    8.7594   -7.5643   16.1578 He  0  0  0  0  0  0  0  0  0  0  0  0
   13.8024   -2.9014   14.1835 He  0  0  0  0  0  0  0  0  0  0  0  0
   -1.2590   -7.6575   16.8302 He  0  0  0  0  0  0  0  0  0  0  0  0
  1  5  1  0
  1  7  3  0
  1  9  3  0
  1 12  2  0
  1 13  2  0
  1 14  1  0
  1 16  3  0
  1 20  2  0
  1 22  2  0
  2  3  4  0
  2  4  1  0
  2  7  3  0
  2  8  3  0
  2 15  4  0
  2 17  1  0
  2 21  1  0
  2 22  1  0
  3 12  3  0
  3 15  1  0
  3 18  1  0
  4  5  3  0
  4  6  4  0
  4  8  2  0
  4 17  4  0
  4 22  2  0
  4 23  2  0
  5 11  2  0
  5 14  1  0
  5 15  4  0
  5 19  4  0
  5 20  1  0
  6  7  4  0
  6  9  1  0
  6 18  3  0
  6 20  3  0
  6 23  2  0
  7  8  4  0
  7 19  4  0
  7 20  1  0
  7 22  2  0
  8 11  3  0
  8 16  1  0
  8 18  1  0
  9 10  2  0
  9 11  4  0
  9 17  2  0
  9 18  3  0
  9 22  2  0
 10 15  1  0
 10 17  4  0
 10 19  4  0
 10 22  2  0
 10 23  2  0
 11 19  3  0
 11 22  3  0
 12 16  1  0
 12 23  4  0
 13 16  1  0
 13 17  3  0
 13 18  1  0
 13 21  2  0
 14 21  4  0
 15 18  2  0
 15 21  3  0
 16 17  3  0
 16 18  3  0
 16 21  1  0
 17 22  3  0
 19 22  1  0
 20 22  3  0
 21 22  4  0
M  END
$$$$

 Created by Python create_sdf_string function

 34 28  0  0  0  0  0  0  0  0999 V2000
   11.1759   -4.6231   20.4135 C   0  0  0  0  0  0  0  0  0  0  0  0
   13.9917   -2.0465   14.8496 O   0  0  0  0  0  0  0  0  0  0  0  0
    9.6856   -3.8550   16.0579 C   0  0  0  0  0  0  0  0  0  0  0  0
   11.7368   -3.6469   23.1198 C   0  0  0  0  0  0  0  0  0  0  0  0
    2.8048   -8.7118   16.4713 C   0  0  0  0  0  0  0  0  0  0  0  0
   10.6353   -4.2655   19.0097 C   0  0  0  0  0  0  0  0  0  0  0  0
    1.0445   -9.3697   15.9475 C   0  0  0  0  0  0  0  0  0  0  0  0
    8.6545   -8.0281   17.6406 C   0  0  0  0  0  0  0  0  0  0  0  0
   11.4214   -3.0958   22.1037 C   0  0  0  0  0  0  0  0  0  0  0  0
   10.9992   -3.3040   21.0544 C   0  0  0  0  0  0  0  0  0  0  0  0
    1.3338   -7.3569   16.3591 C   0  0  0  0  0  0  0  0  0  0  0  0
   11.7824   -5.4022   21.6135 C   0  0  0  0  0  0  0  0  0  0  0  0
   13.2728   -2.8893   14.7138 N   0  0  0  0  0  0  0  0  0  0  0  0
   11.8703   -5.1457   22.8178 C   0  0  0  0  0  0  0  0  0  0  0  0
   11.7505   -3.4260   16.1818 C   0  0  0  0  0  0  0  0  0  0  0  0
    6.9612   -8.2778   17.0875 C   0  0  0  0  0  0  0  0  0  0  0  0
   -0.6712  -10.0378   15.5514 C   0  0  0  0  0  0  0  0  0  0  0  0
    5.3662   -7.5899   17.1662 C   0  0  0  0  0  0  0  0  0  0  0  0
   10.6593   -4.5614   17.9815 C   0  0  0  0  0  0  0  0  0  0  0  0
    9.8115   -7.3434   18.6479 C   0  0  0  0  0  0  0  0  0  0  0  0
   11.6722   -5.7247   19.8159 C   0  0  0  0  0  0  0  0  0  0  0  0
   10.1922   -5.4538   18.3728 C   0  0  0  0  0  0  0  0  0  0  0  0
    3.9857   -8.6218   16.6081 C   0  0  0  0  0  0  0  0  0  0  0  0
    0.2633   -8.1122   16.1366 C   0  0  0  0  0  0  0  0  0  0  0  0
    1.7538   -9.1498   16.3708 C   0  0  0  0  0  0  0  0  0  0  0  0
    6.5100   -8.3045   16.9357 C   0  0  0  0  0  0  0  0  0  0  0  0
    4.7362   -7.7823   16.4214 C   0  0  0  0  0  0  0  0  0  0  0  0
    8.6306   -7.2965   16.9617 C   0  0  0  0  0  0  0  0  0  0  0  0
   12.2656   -3.5235   15.9935 C   0  0  0  0  0  0  0  0  0  0  0  0
   10.0171   -4.5334   17.1268 C   0  0  0  0  0  0  0  0  0  0  0  0
    6.6149   -7.9331   16.3546 C   0  0  0  0  0  0  0  0  0  0  0  0
   11.9696   -3.3877   16.0721 C   0  0  0  0  0  0  0  0  0  0  0  0
   13.4861   -3.1852   14.0532 O   0  0  0  0  0  0  0  0  0  0  0  0
   -0.4019   -7.6677   16.2381 C   0  0  0  0  0  0  0  0  0  0  0  0
  1  6  1  0
  1 10  4  0
  1 21  4  0
  2 13  2  0
  3 30  4  0
  4  9  4  0
  4 14  4  0
  5 23  1  0
  5 25  4  0
  6 19  1  0
  6 22  4  0
  7 25  4  0
  8 20  1  0
  8 28  1  0
  9 10  4  0
 11 24  4  0
 11 34  4  0
 12 14  4  0
 13 33  1  0
 15 29  4  0
 15 32  4  0
 16 26  1  0
 18 27  4  0
 19 30  4  0
 23 27  1  0
 24 34  1  0
 26 31  1  0
 29 32  4  0
M  END
$$$$

 Created by Python create_sdf_string function

 34 58  0  0  0  0  0  0  0  0999 V2000
   11.2566   -4.8165   19.3128 N   0  0  0  0  0  0  0  0  0  0  0  0
   13.8900   -1.5726   14.7174 O   0  0  0  0  0  0  0  0  0  0  0  0
   11.3540   -5.0208   20.2933 C   0  0  0  0  0  0  0  0  0  0  0  0
    1.7803   -8.3395   16.3324 C   0  0  0  0  0  0  0  0  0  0  0  0
    9.8602   -9.0219   17.2276 C   0  0  0  0  0  0  0  0  0  0  0  0
   11.9041   -2.6914   22.1383 C   0  0  0  0  0  0  0  0  0  0  0  0
   10.3686   -2.6052   20.6525 C   0  0  0  0  0  0  0  0  0  0  0  0
    2.2366   -8.0959   16.4523 C   0  0  0  0  0  0  0  0  0  0  0  0
   14.0546   -1.8181   14.0996 N   0  0  0  0  0  0  0  0  0  0  0  0
   11.8834   -6.3275   22.8581 Cl  0  0  0  0  0  0  0  0  0  0  0  0
   11.1876   -2.0968   17.7607 C   0  0  0  0  0  0  0  0  0  0  0  0
    7.6909   -7.4029   17.9513 F   0  0  0  0  0  0  0  0  0  0  0  0
    9.3557   -4.4910   17.5792 C   0  0  0  0  0  0  0  0  0  0  0  0
    2.9224   -8.7710   16.4178 C   0  0  0  0  0  0  0  0  0  0  0  0
    0.1871   -8.4182   16.8144 N   0  0  0  0  0  0  0  0  0  0  0  0
    5.5415   -7.9180   16.8165 P   0  0  0  0  0  0  0  0  0  0  0  0
    9.7936   -8.0719   16.1223 C   0  0  0  0  0  0  0  0  0  0  0  0
    5.8393   -7.2229   16.8120 C   0  0  0  0  0  0  0  0  0  0  0  0
   12.5133   -3.4232   13.5412 N   0  0  0  0  0  0  0  0  0  0  0  0
   -0.9223   -8.4355   15.5026 Cl  0  0  0  0  0  0  0  0  0  0  0  0
   10.2397   -4.7170   16.1821 He  0  0  0  0  0  0  0  0  0  0  0  0
   11.9297   -3.5403   23.2122 He  0  0  0  0  0  0  0  0  0  0  0  0
    2.7198   -9.3760   15.6854 He  0  0  0  0  0  0  0  0  0  0  0  0
   12.3045   -6.1471   21.5061 He  0  0  0  0  0  0  0  0  0  0  0  0
   -0.3658   -9.2789   14.8657 He  0  0  0  0  0  0  0  0  0  0  0  0
    5.7909   -6.7879   18.2695 He  0  0  0  0  0  0  0  0  0  0  0  0
    9.6061   -7.5991   18.0922 He  0  0  0  0  0  0  0  0  0  0  0  0
   10.8553   -6.2846   19.7734 He  0  0  0  0  0  0  0  0  0  0  0  0
    8.8962   -5.0893   18.1498 He  0  0  0  0  0  0  0  0  0  0  0  0
    2.6328   -9.6317   15.6903 He  0  0  0  0  0  0  0  0  0  0  0  0
    6.8931   -8.4015   17.1298 He  0  0  0  0  0  0  0  0  0  0  0  0
   11.6774   -3.0756   14.4148 He  0  0  0  0  0  0  0  0  0  0  0  0
   10.9095   -4.5425   17.2669 He  0  0  0  0  0  0  0  0  0  0  0  0
   10.8715   -3.5710   16.2398 He  0  0  0  0  0  0  0  0  0  0  0  0
  1  3  1  0
  1 10  2  0
  1 14  4  0
  1 15  2  0
  2  3  3  0
  2  7  2  0
  2  9  2  0
  2 10  2  0
  2 11  3  0
  2 16  4  0
  2 19  3  0
  3  6  1  0
  3 13  1  0
  3 17  2  0
  3 19  2  0
  4  5  3  0
  4  7  3  0
  4  9  2  0
  4 13  3  0
  4 15  2  0
  4 18  4  0
  4 20  1  0
  5  6  1  0
  6  7  1  0
  6 10  4  0
  6 16  1  0
  6 17  1  0
  6 19  3  0
  7  9  2  0
  8 14  3  0
  8 15  4  0
  8 16  2  0
  8 20  4  0
  9 11  3  0
  9 15  3  0
  9 17  1  0
  9 18  2  0
  9 19  1  0
 10 15  1  0
 10 16  4  0
 10 18  1  0
 10 20  1  0
 11 12  3  0
 11 13  1  0
 11 16  4  0
 12 14  2  0
 12 18  4  0
 13 16  3  0
 13 17  2  0
 13 18  4  0
 14 17  3  0
 14 19  2  0
 14 20  2  0
 15 20  2  0
 17 18  4  0
 17 19  3  0
 18 19  1  0
 19 20  4  0
M  END
$$$$

 Created by Python create_sdf_string function

 34 28  0  0  0  0  0  0  0  0999 V2000
   10.8698   -4.8024   19.7666 C   0  0  0  0  0  0  0  0  0  0  0  0
   13.6552   -1.8376   14.7119 O   0  0  0  0  0  0  0  0  0  0  0  0
   10.4566   -4.4692   15.8329 C   0  0  0  0  0  0  0  0  0  0  0  0
   11.7591   -3.6986   23.2140 C   0  0  0  0  0  0  0  0  0  0  0  0
    2.5475   -8.9566   15.8029 C   0  0  0  0  0  0  0  0  0  0  0  0
   11.0563   -4.3547   20.3573 C   0  0  0  0  0  0  0  0  0  0  0  0
    1.4790   -8.3794   16.2932 C   0  0  0  0  0  0  0  0  0  0  0  0
    9.1623   -8.2305   17.4163 C   0  0  0  0  0  0  0  0  0  0  0  0
   11.4338   -3.1264   22.2281 C   0  0  0  0  0  0  0  0  0  0  0  0
   11.2271   -3.2436   21.0228 C   0  0  0  0  0  0  0  0  0  0  0  0
    1.9785   -8.0693   16.3946 C   0  0  0  0  0  0  0  0  0  0  0  0
   11.8619   -5.3856   21.6645 C   0  0  0  0  0  0  0  0  0  0  0  0
   12.9270   -2.6634   14.4773 C   0  0  0  0  0  0  0  0  0  0  0  0
   11.7639   -5.0991   22.4775 C   0  0  0  0  0  0  0  0  0  0  0  0
   11.5285   -2.9326   17.3560 C   0  0  0  0  0  0  0  0  0  0  0  0
    6.9590   -7.0060   17.7691 C   0  0  0  0  0  0  0  0  0  0  0  0
   -0.4589   -9.2656   15.1778 C   0  0  0  0  0  0  0  0  0  0  0  0
    5.7055   -7.5218   17.8400 C   0  0  0  0  0  0  0  0  0  0  0  0
   10.6571   -4.2738   17.9863 C   0  0  0  0  0  0  0  0  0  0  0  0
    9.1848   -7.1705   17.8611 C   0  0  0  0  0  0  0  0  0  0  0  0
   10.3554   -6.0776   19.3456 C   0  0  0  0  0  0  0  0  0  0  0  0
    9.6955   -6.0310   18.1171 C   0  0  0  0  0  0  0  0  0  0  0  0
    3.5219   -8.4506   16.5308 C   0  0  0  0  0  0  0  0  0  0  0  0
   -0.0014   -8.1182   16.4832 C   0  0  0  0  0  0  0  0  0  0  0  0
    2.3628   -8.9923   15.9751 C   0  0  0  0  0  0  0  0  0  0  0  0
    6.7096   -8.2695   16.6029 C   0  0  0  0  0  0  0  0  0  0  0  0
    4.7905   -8.1951   16.9450 C   0  0  0  0  0  0  0  0  0  0  0  0
    8.3304   -7.9873   16.0622 C   0  0  0  0  0  0  0  0  0  0  0  0
   11.8585   -3.2922   15.5390 C   0  0  0  0  0  0  0  0  0  0  0  0
   10.2894   -4.5816   16.9761 C   0  0  0  0  0  0  0  0  0  0  0  0
    6.6627   -7.8164   16.8833 C   0  0  0  0  0  0  0  0  0  0  0  0
   11.9017   -2.9980   16.3038 C   0  0  0  0  0  0  0  0  0  0  0  0
   12.7851   -3.2965   13.3351 O   0  0  0  0  0  0  0  0  0  0  0  0
   -0.6973   -8.5531   15.6665 C   0  0  0  0  0  0  0  0  0  0  0  0
  1  6  1  0
  1 21  4  0
  2 13  2  0
  3 30  4  0
  4  9  4  0
  4 14  4  0
  5 25  4  0
  6 10  4  0
  7 11  4  0
  8 20  1  0
  9 10  4  0
 12 14  4  0
 13 29  1  0
 13 33  1  0
 15 19  4  0
 15 32  4  0
 16 18  4  0
 16 31  4  0
 17 34  1  0
 18 27  4  0
 19 30  4  0
 20 22  1  0
 21 22  4  0
 22 30  4  0
 23 25  4  0
 23 27  1  0
 26 31  4  0
 29 32  4  0
M  END
$$$$

 Created by Python create_sdf_string function

 34 45  0  0  0  0  0  0  0  0999 V2000
   13.2784   -1.4522   15.0332 O   0  0  0  0  0  0  0  0  0  0  0  0
   10.4818   -5.3056   15.8286 C   0  0  0  0  0  0  0  0  0  0  0  0
    1.6716   -8.3370   15.2051 C   0  0  0  0  0  0  0  0  0  0  0  0
   10.6354   -7.9171   17.4265 P   0  0  0  0  0  0  0  0  0  0  0  0
   12.0974   -3.4357   22.4105 S   0  0  0  0  0  0  0  0  0  0  0  0
    2.0540   -7.5780   16.2698 Cl  0  0  0  0  0  0  0  0  0  0  0  0
   12.4133   -4.4238   22.9346 S   0  0  0  0  0  0  0  0  0  0  0  0
   12.8871   -2.7264   17.3653 C   0  0  0  0  0  0  0  0  0  0  0  0
    6.9378   -6.4501   17.4389 C   0  0  0  0  0  0  0  0  0  0  0  0
    5.4233   -7.9781   17.8679 N   0  0  0  0  0  0  0  0  0  0  0  0
    9.7951   -5.9357   18.1664 C   0  0  0  0  0  0  0  0  0  0  0  0
    9.8029   -5.8634   18.6651 N   0  0  0  0  0  0  0  0  0  0  0  0
    9.3831   -6.3664   18.4365 O   0  0  0  0  0  0  0  0  0  0  0  0
    3.6678   -8.8564   16.2247 C   0  0  0  0  0  0  0  0  0  0  0  0
    4.9379   -8.2823   17.6702 C   0  0  0  0  0  0  0  0  0  0  0  0
    7.8527   -8.3155   16.9067 C   0  0  0  0  0  0  0  0  0  0  0  0
   10.9769   -2.3749   15.9514 C   0  0  0  0  0  0  0  0  0  0  0  0
   10.1360   -4.0726   18.8783 He  0  0  0  0  0  0  0  0  0  0  0  0
   12.3048   -3.5504   22.5655 He  0  0  0  0  0  0  0  0  0  0  0  0
    2.6003   -8.3285   15.1623 He  0  0  0  0  0  0  0  0  0  0  0  0
   11.6942   -3.8892   19.1465 He  0  0  0  0  0  0  0  0  0  0  0  0
   12.3391   -2.4390   22.4207 He  0  0  0  0  0  0  0  0  0  0  0  0
   10.8154   -6.0886   22.2773 He  0  0  0  0  0  0  0  0  0  0  0  0
   12.9357   -2.8513   13.6463 He  0  0  0  0  0  0  0  0  0  0  0  0
    0.2831   -9.6360   14.6907 He  0  0  0  0  0  0  0  0  0  0  0  0
   10.4829   -6.4705   18.8727 He  0  0  0  0  0  0  0  0  0  0  0  0
   -0.3930   -8.9241   15.8714 He  0  0  0  0  0  0  0  0  0  0  0  0
    3.0367   -8.9456   16.6070 He  0  0  0  0  0  0  0  0  0  0  0  0
    6.5160   -8.1611   16.7310 He  0  0  0  0  0  0  0  0  0  0  0  0
    7.9663   -6.7493   16.5448 He  0  0  0  0  0  0  0  0  0  0  0  0
   11.1067   -2.9551   15.2751 He  0  0  0  0  0  0  0  0  0  0  0  0
    9.3681   -4.7101   18.9651 He  0  0  0  0  0  0  0  0  0  0  0  0
   11.4963   -3.3125   13.0575 He  0  0  0  0  0  0  0  0  0  0  0  0
   -0.7998   -7.5976   15.3499 He  0  0  0  0  0  0  0  0  0  0  0  0
  1  2  4  0
  1  3  2  0
  1  5  1  0
  1  6  2  0
  1  7  3  0
  1  9  2  0
  1 11  4  0
  1 12  3  0
  1 13  2  0
  2  3  1  0
  2 11  2  0
  2 12  3  0
  2 13  3  0
  3  6  4  0
  3  7  2  0
  3 10  2  0
  3 12  4  0
  3 17  3  0
  4  9  3  0
  4 11  3  0
  5  7  1  0
  5  8  4  0
  5  9  1  0
  5 14  3  0
  6  8  2  0
  6 17  2  0
  7  8  3  0
  7 14  1  0
  7 15  2  0
  7 16  2  0
  8 10  3  0
  8 11  2  0
  8 14  2  0
  8 15  1  0
  8 17  2  0
  9 10  4  0
  9 13  3  0
  9 14  2  0
  9 15  3  0
 10 12  3  0
 11 15  1  0
 11 17  4  0
 13 17  4  0
 14 17  2  0
 16 17  1  0
M  END
$$$$

 Created by Python create_sdf_string function

 34 24  0  0  0  0  0  0  0  0999 V2000
   10.5598   -4.3127   18.3203 C   0  0  0  0  0  0  0  0  0  0  0  0
   13.4126   -2.1226   14.7924 O   0  0  0  0  0  0  0  0  0  0  0  0
    9.7986   -4.6183   16.2870 C   0  0  0  0  0  0  0  0  0  0  0  0
   12.1485   -3.6689   22.7729 C   0  0  0  0  0  0  0  0  0  0  0  0
    2.3454   -8.4960   15.8010 C   0  0  0  0  0  0  0  0  0  0  0  0
   11.2837   -4.0667   20.2940 C   0  0  0  0  0  0  0  0  0  0  0  0
    1.4242   -8.2583   15.6770 C   0  0  0  0  0  0  0  0  0  0  0  0
    9.5080   -7.8931   17.9409 C   0  0  0  0  0  0  0  0  0  0  0  0
   12.1705   -2.7047   22.2806 C   0  0  0  0  0  0  0  0  0  0  0  0
   11.6755   -3.3067   21.4939 C   0  0  0  0  0  0  0  0  0  0  0  0
    1.6577   -7.7316   15.6816 C   0  0  0  0  0  0  0  0  0  0  0  0
   11.2566   -5.0988   21.7884 C   0  0  0  0  0  0  0  0  0  0  0  0
   12.6282   -2.8668   14.3437 C   0  0  0  0  0  0  0  0  0  0  0  0
   11.9483   -4.2602   22.6219 C   0  0  0  0  0  0  0  0  0  0  0  0
   11.6931   -2.8672   17.1240 C   0  0  0  0  0  0  0  0  0  0  0  0
    6.6197   -7.1636   17.8834 C   0  0  0  0  0  0  0  0  0  0  0  0
    0.2236   -9.4225   14.9877 C   0  0  0  0  0  0  0  0  0  0  0  0
    5.5028   -7.7594   17.6381 C   0  0  0  0  0  0  0  0  0  0  0  0
   10.4065   -4.5117   17.4778 C   0  0  0  0  0  0  0  0  0  0  0  0
   10.2336   -6.5878   18.8738 C   0  0  0  0  0  0  0  0  0  0  0  0
   10.3152   -5.1187   19.1624 N   0  0  0  0  0  0  0  0  0  0  0  0
    9.3784   -6.6374   18.2729 C   0  0  0  0  0  0  0  0  0  0  0  0
    3.7954   -8.6087   16.5278 C   0  0  0  0  0  0  0  0  0  0  0  0
    0.0851   -9.0719   15.4870 C   0  0  0  0  0  0  0  0  0  0  0  0
    3.2113   -8.8602   16.4434 C   0  0  0  0  0  0  0  0  0  0  0  0
    6.8614   -8.0182   16.4764 C   0  0  0  0  0  0  0  0  0  0  0  0
    4.7515   -8.2289   16.9862 C   0  0  0  0  0  0  0  0  0  0  0  0
    7.8118   -7.3365   16.5378 C   0  0  0  0  0  0  0  0  0  0  0  0
   11.6810   -3.5673   15.2972 C   0  0  0  0  0  0  0  0  0  0  0  0
    9.8905   -5.0769   18.6319 C   0  0  0  0  0  0  0  0  0  0  0  0
    8.0259   -8.1914   16.8082 C   0  0  0  0  0  0  0  0  0  0  0  0
   11.5268   -3.5277   16.2007 C   0  0  0  0  0  0  0  0  0  0  0  0
   12.4212   -3.1749   13.2918 O   0  0  0  0  0  0  0  0  0  0  0  0
   -0.4272   -7.9339   15.1582 C   0  0  0  0  0  0  0  0  0  0  0  0
  1 19  1  0
  1 21  4  0
  2 13  2  0
  3 19  4  0
  4 14  4  0
  5 25  4  0
  6 10  4  0
  7 11  4  0
  9 10  4  0
 12 14  4  0
 13 29  1  0
 13 33  1  0
 15 32  4  0
 16 18  4  0
 17 24  4  0
 18 27  4  0
 20 22  1  0
 22 30  4  0
 23 25  4  0
 23 27  4  0
 26 28  1  0
 26 31  4  0
 28 31  4  0
 29 32  4  0
M  END
$$$$

 Created by Python create_sdf_string function

 34 81  0  0  0  0  0  0  0  0999 V2000
   10.3510   -4.6711   18.3757 C   0  0  0  0  0  0  0  0  0  0  0  0
   14.2305   -1.1398   14.6007 N   0  0  0  0  0  0  0  0  0  0  0  0
   10.8026   -2.0414   22.8801 C   0  0  0  0  0  0  0  0  0  0  0  0
    3.2018   -9.6855   16.1582 C   0  0  0  0  0  0  0  0  0  0  0  0
   11.9375   -3.4171   20.3129 C   0  0  0  0  0  0  0  0  0  0  0  0
   12.5057   -3.6093   21.7358 C   0  0  0  0  0  0  0  0  0  0  0  0
    2.2066   -7.1738   17.4433 C   0  0  0  0  0  0  0  0  0  0  0  0
   11.9774   -4.9327   20.7682 C   0  0  0  0  0  0  0  0  0  0  0  0
   12.9599   -3.1685   14.5151 F   0  0  0  0  0  0  0  0  0  0  0  0
   11.7995   -5.1223   21.8554 N   0  0  0  0  0  0  0  0  0  0  0  0
   11.4809   -2.5973   17.0086 C   0  0  0  0  0  0  0  0  0  0  0  0
    6.8945   -7.6476   18.3856 N   0  0  0  0  0  0  0  0  0  0  0  0
   -0.3283   -9.0317   14.5763 N   0  0  0  0  0  0  0  0  0  0  0  0
    5.9624   -6.9419   17.3165 F   0  0  0  0  0  0  0  0  0  0  0  0
    9.1024   -4.7793   18.5964 F   0  0  0  0  0  0  0  0  0  0  0  0
    8.6163   -5.9812   18.1955 B   0  0  0  0  0  0  0  0  0  0  0  0
    5.4286   -8.0907   17.0238 F   0  0  0  0  0  0  0  0  0  0  0  0
   -0.7199   -8.5955   16.2624 C   0  0  0  0  0  0  0  0  0  0  0  0
    3.5011   -9.5179   15.4750 C   0  0  0  0  0  0  0  0  0  0  0  0
    5.0424   -8.6111   17.1680 C   0  0  0  0  0  0  0  0  0  0  0  0
    7.9488   -7.3785   17.4992 O   0  0  0  0  0  0  0  0  0  0  0  0
   10.6302   -6.1361   19.6483 O   0  0  0  0  0  0  0  0  0  0  0  0
   11.5795   -2.0059   12.9730 O   0  0  0  0  0  0  0  0  0  0  0  0
   -0.2388   -7.6717   14.3744 P   0  0  0  0  0  0  0  0  0  0  0  0
    8.7703   -4.2911   15.3345 He  0  0  0  0  0  0  0  0  0  0  0  0
    1.7569   -7.0346   15.5400 He  0  0  0  0  0  0  0  0  0  0  0  0
   10.0664   -7.6011   17.6034 He  0  0  0  0  0  0  0  0  0  0  0  0
   11.5575   -4.0115   20.7112 He  0  0  0  0  0  0  0  0  0  0  0  0
   10.4460   -7.4514   19.1605 He  0  0  0  0  0  0  0  0  0  0  0  0
   10.8240   -4.5274   18.4395 He  0  0  0  0  0  0  0  0  0  0  0  0
    7.0708   -8.2478   16.9612 He  0  0  0  0  0  0  0  0  0  0  0  0
   12.0791   -3.1437   15.4562 He  0  0  0  0  0  0  0  0  0  0  0  0
    8.4766   -7.4993   15.8897 He  0  0  0  0  0  0  0  0  0  0  0  0
   11.0916   -3.9571   15.7516 He  0  0  0  0  0  0  0  0  0  0  0  0
  1  2  3  0
  1 11  2  0
  1 13  2  0
  1 15  1  0
  1 21  1  0
  1 22  3  0
  1 23  3  0
  2  3  1  0
  2 11  2  0
  2 12  4  0
  2 14  4  0
  2 16  4  0
  2 17  1  0
  2 20  2  0
  2 21  1  0
  3  6  2  0
  3  8  2  0
  3 13  2  0
  3 15  3  0
  3 16  3  0
  3 17  4  0
  3 18  4  0
  3 20  4  0
  3 22  3  0
  4  8  2  0
  4  9  2  0
  4 11  2  0
  4 14  2  0
  4 16  1  0
  4 19  3  0
  5 14  2  0
  5 17  1  0
  5 21  1  0
  6 14  4  0
  6 17  2  0
  6 18  4  0
  6 19  3  0
  6 23  3  0
  7 11  4  0
  7 15  1  0
  7 22  1  0
  7 23  3  0
  8 10  3  0
  8 11  1  0
  8 15  1  0
  8 17  2  0
  8 20  3  0
  9 20  1  0
  9 23  3  0
 10 11  3  0
 10 13  4  0
 10 16  4  0
 10 17  3  0
 10 18  4  0
 10 21  3  0
 10 22  1  0
 11 13  2  0
 11 24  4  0
 13 14  4  0
 13 15  2  0
 13 16  2  0
 13 18  4  0
 13 19  3  0
 13 21  3  0
 13 22  2  0
 14 16  4  0
 15 16  3  0
 15 19  3  0
 15 21  4  0
 15 24  1  0
 16 17  4  0
 16 22  4  0
 16 24  1  0
 17 19  3  0
 17 20  4  0
 17 21  2  0
 18 21  1  0
 18 24  2  0
 20 24  1  0
 22 23  4  0
 22 24  2  0
M  END
$$$$

 Created by Python create_sdf_string function

 34 24  0  0  0  0  0  0  0  0999 V2000
   10.5300   -4.5019   18.1678 C   0  0  0  0  0  0  0  0  0  0  0  0
   13.8319   -1.8238   14.7636 O   0  0  0  0  0  0  0  0  0  0  0  0
    9.2932   -4.3224   16.1420 C   0  0  0  0  0  0  0  0  0  0  0  0
   11.6136   -2.6445   22.9533 C   0  0  0  0  0  0  0  0  0  0  0  0
    2.8322   -9.1520   16.0277 C   0  0  0  0  0  0  0  0  0  0  0  0
   11.2052   -3.4562   20.2080 C   0  0  0  0  0  0  0  0  0  0  0  0
    1.4362   -7.3523   15.7015 C   0  0  0  0  0  0  0  0  0  0  0  0
    9.5441   -7.6777   17.9532 C   0  0  0  0  0  0  0  0  0  0  0  0
   11.6449   -3.3650   22.0873 C   0  0  0  0  0  0  0  0  0  0  0  0
   11.2770   -3.5918   20.6853 C   0  0  0  0  0  0  0  0  0  0  0  0
    2.7145   -7.4810   16.2865 C   0  0  0  0  0  0  0  0  0  0  0  0
   11.4347   -5.0666   21.2678 C   0  0  0  0  0  0  0  0  0  0  0  0
   12.8948   -3.1830   14.8377 C   0  0  0  0  0  0  0  0  0  0  0  0
   11.6422   -5.0277   22.0881 C   0  0  0  0  0  0  0  0  0  0  0  0
   11.7810   -3.4286   16.3309 C   0  0  0  0  0  0  0  0  0  0  0  0
    6.6084   -7.2037   17.9746 C   0  0  0  0  0  0  0  0  0  0  0  0
    0.3676   -9.3524   15.2279 N   0  0  0  0  0  0  0  0  0  0  0  0
    5.8447   -7.4351   17.6628 C   0  0  0  0  0  0  0  0  0  0  0  0
    9.5819   -5.2230   17.5948 C   0  0  0  0  0  0  0  0  0  0  0  0
    9.8710   -7.3911   18.6713 C   0  0  0  0  0  0  0  0  0  0  0  0
   10.9988   -3.9332   18.1215 C   0  0  0  0  0  0  0  0  0  0  0  0
    9.0321   -6.2293   18.0858 C   0  0  0  0  0  0  0  0  0  0  0  0
    5.3163   -8.4441   16.5509 C   0  0  0  0  0  0  0  0  0  0  0  0
    0.3734   -8.4266   15.3187 C   0  0  0  0  0  0  0  0  0  0  0  0
    2.7799   -8.9836   15.9518 C   0  0  0  0  0  0  0  0  0  0  0  0
    7.1018   -8.2961   16.2698 C   0  0  0  0  0  0  0  0  0  0  0  0
    4.7126   -8.2250   16.8639 C   0  0  0  0  0  0  0  0  0  0  0  0
    7.8515   -7.5720   17.2989 C   0  0  0  0  0  0  0  0  0  0  0  0
   12.5649   -3.0353   14.8615 C   0  0  0  0  0  0  0  0  0  0  0  0
   10.7838   -5.4510   19.9265 C   0  0  0  0  0  0  0  0  0  0  0  0
    8.1587   -7.9548   16.0902 C   0  0  0  0  0  0  0  0  0  0  0  0
   10.7494   -3.7995   15.8980 C   0  0  0  0  0  0  0  0  0  0  0  0
   12.1538   -2.8038   13.3692 O   0  0  0  0  0  0  0  0  0  0  0  0
   -0.1905   -7.6690   14.9044 O   0  0  0  0  0  0  0  0  0  0  0  0
  1 19  1  0
  1 21  4  0
  3 19  4  0
  3 32  4  0
  4  9  1  0
  5 25  4  0
  6 10  4  0
  7 11  4  0
  7 24  1  0
  9 10  4  0
 12 14  4  0
 12 30  4  0
 13 29  1  0
 15 21  4  0
 15 32  4  0
 16 18  4  0
 17 24  4  0
 18 27  4  0
 19 22  4  0
 23 26  4  0
 23 27  4  0
 24 34  2  0
 26 31  4  0
 29 33  2  0
M  END
$$$$

 Created by Python create_sdf_string function

 34 43  0  0  0  0  0  0  0  0999 V2000
   12.0298   -4.7446   18.0909 I   0  0  0  0  0  0  0  0  0  0  0  0
   14.6490   -2.3973   16.1268 O   0  0  0  0  0  0  0  0  0  0  0  0
   11.6339   -3.0975   20.0427 P   0  0  0  0  0  0  0  0  0  0  0  0
   12.7448   -2.4154   22.6538 C   0  0  0  0  0  0  0  0  0  0  0  0
    3.1877   -6.9474   16.2858 Cl  0  0  0  0  0  0  0  0  0  0  0  0
   10.5393   -5.6441   20.6112 C   0  0  0  0  0  0  0  0  0  0  0  0
   12.2840   -5.7295   22.2488 C   0  0  0  0  0  0  0  0  0  0  0  0
   12.0602   -3.4232   15.5036 F   0  0  0  0  0  0  0  0  0  0  0  0
    6.1683   -7.1795   19.0028 C   0  0  0  0  0  0  0  0  0  0  0  0
    1.9854   -9.3455   15.1863 N   0  0  0  0  0  0  0  0  0  0  0  0
   10.3062   -4.7046   17.2870 O   0  0  0  0  0  0  0  0  0  0  0  0
    9.1659   -5.4978   18.3284 C   0  0  0  0  0  0  0  0  0  0  0  0
    5.0857   -7.7407   16.7242 P   0  0  0  0  0  0  0  0  0  0  0  0
    2.7193   -9.3915   16.0431 C   0  0  0  0  0  0  0  0  0  0  0  0
    4.3949   -7.7224   16.6023 C   0  0  0  0  0  0  0  0  0  0  0  0
   12.3199   -2.1292   14.9886 P   0  0  0  0  0  0  0  0  0  0  0  0
   10.1744   -6.1581   20.8032 C   0  0  0  0  0  0  0  0  0  0  0  0
    7.3807   -7.8605   16.8135 S   0  0  0  0  0  0  0  0  0  0  0  0
   10.2098   -3.5862   16.2075 He  0  0  0  0  0  0  0  0  0  0  0  0
   10.7780   -2.5676   23.2601 He  0  0  0  0  0  0  0  0  0  0  0  0
    3.6628   -8.0635   15.1001 He  0  0  0  0  0  0  0  0  0  0  0  0
    1.5385   -6.9668   16.0346 He  0  0  0  0  0  0  0  0  0  0  0  0
   10.1479   -8.3875   19.1245 He  0  0  0  0  0  0  0  0  0  0  0  0
   11.6650   -3.2341   20.7830 He  0  0  0  0  0  0  0  0  0  0  0  0
   12.8475   -3.3354   14.8271 He  0  0  0  0  0  0  0  0  0  0  0  0
    5.6383   -7.9962   18.1209 He  0  0  0  0  0  0  0  0  0  0  0  0
   11.0565   -8.3389   17.9877 He  0  0  0  0  0  0  0  0  0  0  0  0
    8.6066   -6.0312   17.9558 He  0  0  0  0  0  0  0  0  0  0  0  0
   -0.0418   -8.8254   15.5049 He  0  0  0  0  0  0  0  0  0  0  0  0
    7.2838   -7.8287   17.1910 He  0  0  0  0  0  0  0  0  0  0  0  0
    7.8980   -7.1460   16.8512 He  0  0  0  0  0  0  0  0  0  0  0  0
   11.4313   -3.8953   15.3263 He  0  0  0  0  0  0  0  0  0  0  0  0
   12.7801   -2.2867   12.9322 He  0  0  0  0  0  0  0  0  0  0  0  0
   -0.1402   -7.0425   15.7976 He  0  0  0  0  0  0  0  0  0  0  0  0
  1  2  3  0
  1  9  1  0
  1 12  4  0
  1 13  3  0
  1 17  2  0
  1 18  4  0
  2  6  2  0
  2  7  2  0
  2  9  3  0
  2 10  1  0
  2 12  3  0
  2 14  1  0
  2 17  3  0
  2 18  1  0
  3  6  2  0
  3 12  3  0
  4  9  1  0
  4 10  3  0
  4 18  1  0
  5  8  3  0
  5 10  1  0
  5 11  1  0
  5 13  2  0
  5 18  2  0
  6  7  4  0
  6 14  3  0
  6 15  3  0
  6 17  2  0
  7 12  4  0
  7 16  4  0
  8 12  2  0
  8 17  1  0
  9 10  1  0
  9 11  2  0
  9 18  4  0
 10 11  1  0
 10 12  2  0
 10 15  3  0
 10 16  3  0
 11 14  2  0
 11 17  4  0
 12 18  1  0
 13 15  4  0
M  END
$$$$

 Created by Python create_sdf_string function

 34 31  0  0  0  0  0  0  0  0999 V2000
   11.3732   -4.0236   18.1045 C   0  0  0  0  0  0  0  0  0  0  0  0
   14.1320   -1.9421   15.0454 O   0  0  0  0  0  0  0  0  0  0  0  0
   10.1297   -3.9968   16.0561 C   0  0  0  0  0  0  0  0  0  0  0  0
   11.5029   -2.6775   23.1704 O   0  0  0  0  0  0  0  0  0  0  0  0
    3.3451   -8.2025   15.9632 C   0  0  0  0  0  0  0  0  0  0  0  0
   11.2384   -3.1865   20.3243 C   0  0  0  0  0  0  0  0  0  0  0  0
    1.2567   -7.0781   15.9412 C   0  0  0  0  0  0  0  0  0  0  0  0
    9.8701   -7.6276   18.7134 C   0  0  0  0  0  0  0  0  0  0  0  0
   11.6299   -3.3806   22.4164 C   0  0  0  0  0  0  0  0  0  0  0  0
   11.3807   -3.2488   20.8555 C   0  0  0  0  0  0  0  0  0  0  0  0
    2.4901   -7.1781   15.9414 C   0  0  0  0  0  0  0  0  0  0  0  0
   11.2261   -5.2092   20.9038 C   0  0  0  0  0  0  0  0  0  0  0  0
   12.5764   -3.4927   14.9724 C   0  0  0  0  0  0  0  0  0  0  0  0
   11.5182   -4.9384   22.0307 C   0  0  0  0  0  0  0  0  0  0  0  0
   11.9726   -3.3888   15.5107 C   0  0  0  0  0  0  0  0  0  0  0  0
    6.4839   -7.4840   18.1560 C   0  0  0  0  0  0  0  0  0  0  0  0
    1.2587   -9.2978   15.4119 C   0  0  0  0  0  0  0  0  0  0  0  0
    5.4403   -7.8829   17.9178 C   0  0  0  0  0  0  0  0  0  0  0  0
    9.8552   -4.8522   16.9837 C   0  0  0  0  0  0  0  0  0  0  0  0
    9.8269   -7.6992   18.0335 C   0  0  0  0  0  0  0  0  0  0  0  0
   10.3849   -5.1680   18.3838 C   0  0  0  0  0  0  0  0  0  0  0  0
    9.5559   -5.7700   17.6609 C   0  0  0  0  0  0  0  0  0  0  0  0
    5.3614   -7.9575   16.1823 C   0  0  0  0  0  0  0  0  0  0  0  0
    0.5266   -8.5553   15.4705 C   0  0  0  0  0  0  0  0  0  0  0  0
    2.6192   -9.1108   15.6631 C   0  0  0  0  0  0  0  0  0  0  0  0
    7.5670   -7.8666   16.8128 C   0  0  0  0  0  0  0  0  0  0  0  0
    4.8061   -7.9416   16.6404 C   0  0  0  0  0  0  0  0  0  0  0  0
    8.4499   -7.3217   16.9075 C   0  0  0  0  0  0  0  0  0  0  0  0
   13.2832   -2.5351   14.4417 C   0  0  0  0  0  0  0  0  0  0  0  0
   10.8859   -5.3996   20.3697 C   0  0  0  0  0  0  0  0  0  0  0  0
    7.4801   -7.6010   17.2077 C   0  0  0  0  0  0  0  0  0  0  0  0
   11.5411   -3.6489   15.9782 C   0  0  0  0  0  0  0  0  0  0  0  0
   13.0612   -2.3686   13.2137 O   0  0  0  0  0  0  0  0  0  0  0  0
    0.0508   -7.3178   15.7129 C   0  0  0  0  0  0  0  0  0  0  0  0
  1 21  4  0
  1 32  4  0
  2 29  1  0
  3 19  4  0
  3 32  4  0
  4  9  1  0
  5 11  1  0
  5 25  4  0
  5 27  1  0
  6 10  4  0
  7 11  4  0
  7 34  4  0
  9 10  4  0
  9 14  4  0
 12 14  4  0
 12 30  4  0
 13 15  1  0
 13 29  1  0
 15 32  4  0
 16 18  4  0
 16 31  4  0
 17 24  4  0
 17 25  4  0
 18 27  4  0
 19 22  4  0
 21 22  4  0
 23 27  4  0
 24 34  4  0
 26 31  4  0
 28 31  1  0
 29 33  2  0
M  END
$$$$

 Created by Python create_sdf_string function

 34 70  0  0  0  0  0  0  0  0999 V2000
   11.1761   -3.5809   19.3494 C   0  0  0  0  0  0  0  0  0  0  0  0
   14.4140   -2.3155   15.4138 O   0  0  0  0  0  0  0  0  0  0  0  0
   10.1638   -4.9855   15.3268 C   0  0  0  0  0  0  0  0  0  0  0  0
    3.3645   -8.1087   16.2000 N   0  0  0  0  0  0  0  0  0  0  0  0
    0.8532   -6.6604   15.7970 Se  0  0  0  0  0  0  0  0  0  0  0  0
    9.6430   -8.0196   17.8541 F   0  0  0  0  0  0  0  0  0  0  0  0
   10.9244   -1.8305   22.9070 O   0  0  0  0  0  0  0  0  0  0  0  0
    3.0467   -6.5087   16.2533 Cl  0  0  0  0  0  0  0  0  0  0  0  0
   11.8726   -7.1892   20.0170 O   0  0  0  0  0  0  0  0  0  0  0  0
    7.1238   -8.0110   18.8240 C   0  0  0  0  0  0  0  0  0  0  0  0
   10.1792   -4.7454   17.0519 C   0  0  0  0  0  0  0  0  0  0  0  0
   10.3001   -5.2967   17.8823 C   0  0  0  0  0  0  0  0  0  0  0  0
    8.5705   -5.8975   17.3183 C   0  0  0  0  0  0  0  0  0  0  0  0
    6.5655   -7.4323   17.5569 C   0  0  0  0  0  0  0  0  0  0  0  0
   -0.7252   -8.5249   14.9096 C   0  0  0  0  0  0  0  0  0  0  0  0
    2.5195   -9.0620   14.8629 Br  0  0  0  0  0  0  0  0  0  0  0  0
    7.6116   -9.1403   16.0416 C   0  0  0  0  0  0  0  0  0  0  0  0
    5.8854   -7.2943   15.9143 C   0  0  0  0  0  0  0  0  0  0  0  0
    7.2197   -6.7898   17.1742 C   0  0  0  0  0  0  0  0  0  0  0  0
   11.5363   -5.5331   20.3857 O   0  0  0  0  0  0  0  0  0  0  0  0
    7.1802   -7.6564   17.1028 C   0  0  0  0  0  0  0  0  0  0  0  0
   11.2446   -3.1109   16.3355 N   0  0  0  0  0  0  0  0  0  0  0  0
   14.1846   -2.0939   12.9664 P   0  0  0  0  0  0  0  0  0  0  0  0
   -0.4951   -6.4086   16.4364 O   0  0  0  0  0  0  0  0  0  0  0  0
   11.4146   -3.7572   22.9122 He  0  0  0  0  0  0  0  0  0  0  0  0
   10.4993   -2.9482   19.5730 He  0  0  0  0  0  0  0  0  0  0  0  0
   11.4589   -3.1469   20.7555 He  0  0  0  0  0  0  0  0  0  0  0  0
   13.4246   -2.9354   14.2679 He  0  0  0  0  0  0  0  0  0  0  0  0
   11.0964   -4.1986   22.6726 He  0  0  0  0  0  0  0  0  0  0  0  0
   12.0630   -3.4209   15.3530 He  0  0  0  0  0  0  0  0  0  0  0  0
    1.9396   -8.7902   15.6170 He  0  0  0  0  0  0  0  0  0  0  0  0
    6.1662   -7.0030   17.8394 He  0  0  0  0  0  0  0  0  0  0  0  0
    9.4473   -7.8029   18.5044 He  0  0  0  0  0  0  0  0  0  0  0  0
   13.2158   -1.8259   14.7496 He  0  0  0  0  0  0  0  0  0  0  0  0
  1  2  1  0
  1  3  1  0
  1  4  1  0
  1  5  4  0
  1 10  3  0
  1 14  3  0
  1 24  3  0
  2  4  4  0
  2  6  2  0
  2  7  3  0
  2 15  3  0
  2 20  2  0
  2 21  3  0
  2 24  2  0
  3  5  1  0
  3 10  3  0
  3 11  4  0
  3 15  4  0
  3 20  2  0
  4  8  1  0
  4 11  1  0
  4 15  3  0
  4 16  1  0
  4 17  1  0
  4 18  1  0
  4 19  4  0
  4 21  4  0
  4 22  3  0
  4 24  3  0
  5  7  4  0
  5  8  2  0
  5 10  3  0
  5 17  2  0
  5 19  1  0
  5 21  2  0
  5 22  2  0
  5 24  4  0
  6 10  2  0
  6 11  4  0
  6 14  2  0
  6 16  2  0
  6 17  4  0
  6 23  3  0
  7 12  1  0
  7 16  4  0
  7 23  4  0
  8 14  3  0
  8 17  1  0
  9 14  2  0
  9 17  1  0
  9 20  1  0
 10 16  1  0
 10 22  2  0
 10 24  2  0
 11 13  2  0
 11 16  4  0
 11 22  4  0
 12 13  4  0
 12 15  4  0
 12 18  4  0
 12 20  3  0
 13 15  4  0
 13 20  3  0
 14 18  4  0
 14 22  1  0
 15 19  1  0
 15 24  3  0
 17 21  4  0
 21 22  1  0
 22 24  2  0
M  END
$$$$

 Created by Python create_sdf_string function

 34 31  0  0  0  0  0  0  0  0999 V2000
   10.9973   -3.3718   19.3730 C   0  0  0  0  0  0  0  0  0  0  0  0
   14.2875   -1.8762   15.0778 O   0  0  0  0  0  0  0  0  0  0  0  0
   10.1168   -4.3819   15.9678 C   0  0  0  0  0  0  0  0  0  0  0  0
   11.1259   -3.5184   22.9712 C   0  0  0  0  0  0  0  0  0  0  0  0
    3.5119   -7.9314   16.0148 N   0  0  0  0  0  0  0  0  0  0  0  0
   10.9795   -3.4179   18.9520 C   0  0  0  0  0  0  0  0  0  0  0  0
    1.2272   -7.0496   16.0724 C   0  0  0  0  0  0  0  0  0  0  0  0
    9.4053   -7.9725   17.8077 C   0  0  0  0  0  0  0  0  0  0  0  0
   11.0733   -2.6443   22.6023 O   0  0  0  0  0  0  0  0  0  0  0  0
   11.1522   -3.4972   20.7531 C   0  0  0  0  0  0  0  0  0  0  0  0
    2.7738   -7.0393   16.0655 C   0  0  0  0  0  0  0  0  0  0  0  0
   11.0023   -6.0286   20.0228 C   0  0  0  0  0  0  0  0  0  0  0  0
   12.6469   -3.1636   14.4560 C   0  0  0  0  0  0  0  0  0  0  0  0
   11.1927   -4.3885   22.1662 O   0  0  0  0  0  0  0  0  0  0  0  0
   12.1750   -3.3537   15.3580 C   0  0  0  0  0  0  0  0  0  0  0  0
    6.8098   -7.8189   18.0296 C   0  0  0  0  0  0  0  0  0  0  0  0
    1.7472   -8.8958   15.2627 C   0  0  0  0  0  0  0  0  0  0  0  0
    5.5025   -7.7446   17.8373 C   0  0  0  0  0  0  0  0  0  0  0  0
   10.3788   -4.3661   17.0297 C   0  0  0  0  0  0  0  0  0  0  0  0
    9.3676   -7.3810   18.0689 C   0  0  0  0  0  0  0  0  0  0  0  0
   10.2846   -4.9849   18.2441 C   0  0  0  0  0  0  0  0  0  0  0  0
    9.4039   -5.7785   17.7549 C   0  0  0  0  0  0  0  0  0  0  0  0
    5.7962   -7.2450   16.1004 C   0  0  0  0  0  0  0  0  0  0  0  0
   -0.0094   -8.3875   15.2633 C   0  0  0  0  0  0  0  0  0  0  0  0
    2.4397   -8.9168   15.4099 C   0  0  0  0  0  0  0  0  0  0  0  0
    7.9870   -8.4827   16.1622 C   0  0  0  0  0  0  0  0  0  0  0  0
    4.9499   -7.6167   16.5007 C   0  0  0  0  0  0  0  0  0  0  0  0
    8.4952   -6.0133   16.9160 C   0  0  0  0  0  0  0  0  0  0  0  0
   13.5841   -2.3992   14.3515 C   0  0  0  0  0  0  0  0  0  0  0  0
   10.9283   -5.4125   19.9508 C   0  0  0  0  0  0  0  0  0  0  0  0
    7.6308   -7.8062   17.1965 C   0  0  0  0  0  0  0  0  0  0  0  0
   11.9926   -3.2596   16.2287 N   0  0  0  0  0  0  0  0  0  0  0  0
   13.8504   -2.0814   13.1810 O   0  0  0  0  0  0  0  0  0  0  0  0
    0.0731   -7.3101   15.8335 O   0  0  0  0  0  0  0  0  0  0  0  0
  1  6  4  0
  1 10  4  0
  2 29  1  0
  3 19  4  0
  4  9  1  0
  4 14  1  0
  5 11  1  0
  5 25  1  0
  5 27  1  0
  7 11  1  0
  7 34  1  0
  8 20  1  0
  8 26  4  0
 12 30  4  0
 13 15  1  0
 13 29  1  0
 15 32  1  0
 16 18  4  0
 16 31  4  0
 17 24  1  0
 17 25  1  0
 18 27  4  0
 19 21  1  0
 20 22  4  0
 21 22  4  0
 21 30  4  0
 22 28  4  0
 23 27  4  0
 24 34  1  0
 26 31  1  0
 29 33  2  0
M  END
$$$$

 Created by Python create_sdf_string function

 34 72  0  0  0  0  0  0  0  0999 V2000
   10.7090   -4.4288   20.0111 C   0  0  0  0  0  0  0  0  0  0  0  0
   14.9665   -2.0522   15.8421 F   0  0  0  0  0  0  0  0  0  0  0  0
    9.3981   -2.8201   15.5424 C   0  0  0  0  0  0  0  0  0  0  0  0
    3.0410   -7.0119   17.3300 N   0  0  0  0  0  0  0  0  0  0  0  0
   11.2426   -4.7150   19.5497 C   0  0  0  0  0  0  0  0  0  0  0  0
    1.0721   -6.5365   14.9232 C   0  0  0  0  0  0  0  0  0  0  0  0
   11.1324   -3.3587   23.4318 O   0  0  0  0  0  0  0  0  0  0  0  0
   10.8680   -3.6442   20.9191 C   0  0  0  0  0  0  0  0  0  0  0  0
    2.5115   -7.4211   15.3234 Cl  0  0  0  0  0  0  0  0  0  0  0  0
   12.5430   -6.7155   20.7235 N   0  0  0  0  0  0  0  0  0  0  0  0
   11.4872   -5.2068   23.0798 O   0  0  0  0  0  0  0  0  0  0  0  0
   11.8326   -4.2121   15.1541 F   0  0  0  0  0  0  0  0  0  0  0  0
    6.6060   -7.2343   18.2488 Cl  0  0  0  0  0  0  0  0  0  0  0  0
    0.8683   -8.4699   14.4598 C   0  0  0  0  0  0  0  0  0  0  0  0
    5.2714   -7.8109   17.3229 F   0  0  0  0  0  0  0  0  0  0  0  0
   10.0341   -6.7108   19.8132 C   0  0  0  0  0  0  0  0  0  0  0  0
    4.9547   -7.0667   15.9370 C   0  0  0  0  0  0  0  0  0  0  0  0
   -0.6544   -8.2856   15.4858 N   0  0  0  0  0  0  0  0  0  0  0  0
    2.5935   -9.2474   15.9686 C   0  0  0  0  0  0  0  0  0  0  0  0
    8.1327   -6.8910   16.6685 O   0  0  0  0  0  0  0  0  0  0  0  0
   14.7604   -3.1569   15.0632 N   0  0  0  0  0  0  0  0  0  0  0  0
    7.9326   -7.6573   16.9724 O   0  0  0  0  0  0  0  0  0  0  0  0
   11.3074   -4.0545   16.2764 N   0  0  0  0  0  0  0  0  0  0  0  0
   14.1217   -2.4715   12.7663 O   0  0  0  0  0  0  0  0  0  0  0  0
   -0.0287   -7.0421   15.9496 S   0  0  0  0  0  0  0  0  0  0  0  0
   11.9312   -4.6485   22.2764 He  0  0  0  0  0  0  0  0  0  0  0  0
   10.7435   -7.8714   17.2697 He  0  0  0  0  0  0  0  0  0  0  0  0
   12.7859   -3.1750   14.5415 He  0  0  0  0  0  0  0  0  0  0  0  0
   10.3015   -4.4037   18.4114 He  0  0  0  0  0  0  0  0  0  0  0  0
    9.9765   -4.5982   17.7818 He  0  0  0  0  0  0  0  0  0  0  0  0
    9.2580   -5.9189   17.8395 He  0  0  0  0  0  0  0  0  0  0  0  0
    8.3801   -8.1956   16.4459 He  0  0  0  0  0  0  0  0  0  0  0  0
    6.0996   -7.8163   16.8298 He  0  0  0  0  0  0  0  0  0  0  0  0
    9.8458   -6.4138   20.0439 He  0  0  0  0  0  0  0  0  0  0  0  0
  1  3  1  0
  1  4  1  0
  1  5  4  0
  1  7  1  0
  1 12  3  0
  1 13  2  0
  1 22  4  0
  2  4  4  0
  2  9  3  0
  2 18  3  0
  2 21  1  0
  3  4  1  0
  3 15  4  0
  3 17  3  0
  3 24  2  0
  4  5  1  0
  4 16  3  0
  4 20  2  0
  4 22  4  0
  5 10  4  0
  5 16  4  0
  5 18  4  0
  5 23  2  0
  6  7  1  0
  6  8  1  0
  6  9  3  0
  6 13  4  0
  6 14  1  0
  6 20  4  0
  6 25  1  0
  7  9  1  0
  7 10  3  0
  7 14  3  0
  7 16  2  0
  7 18  4  0
  7 20  3  0
  7 21  2  0
  8 16  2  0
  8 25  3  0
  9 17  3  0
  9 18  3  0
  9 20  4  0
 10 11  1  0
 10 16  3  0
 10 20  3  0
 10 24  3  0
 11 13  1  0
 11 20  4  0
 11 21  2  0
 12 20  2  0
 12 21  1  0
 12 23  1  0
 12 25  2  0
 13 15  4  0
 13 24  4  0
 13 25  1  0
 14 18  1  0
 15 18  3  0
 16 17  3  0
 16 19  4  0
 16 24  4  0
 17 19  2  0
 18 20  2  0
 18 21  3  0
 18 22  1  0
 18 23  3  0
 18 25  1  0
 19 21  3  0
 19 25  2  0
 20 21  1  0
 21 24  4  0
 23 25  1  0
M  END
$$$$

 Created by Python create_sdf_string function

 34 31  0  0  0  0  0  0  0  0999 V2000
   10.7155   -3.8968   20.0472 C   0  0  0  0  0  0  0  0  0  0  0  0
   14.5460   -2.3470   15.0200 O   0  0  0  0  0  0  0  0  0  0  0  0
    9.7537   -3.6345   16.1074 C   0  0  0  0  0  0  0  0  0  0  0  0
   11.6055   -4.5219   22.5255 C   0  0  0  0  0  0  0  0  0  0  0  0
    3.3238   -7.6800   16.2123 N   0  0  0  0  0  0  0  0  0  0  0  0
   11.5000   -5.1301   20.2411 C   0  0  0  0  0  0  0  0  0  0  0  0
    1.3785   -7.0762   15.0506 C   0  0  0  0  0  0  0  0  0  0  0  0
    9.5746   -7.8387   17.8558 C   0  0  0  0  0  0  0  0  0  0  0  0
   11.2336   -3.5098   23.0698 O   0  0  0  0  0  0  0  0  0  0  0  0
   10.7478   -3.6112   20.9128 C   0  0  0  0  0  0  0  0  0  0  0  0
    2.5032   -7.2309   15.5752 C   0  0  0  0  0  0  0  0  0  0  0  0
   11.9754   -5.6308   21.0204 C   0  0  0  0  0  0  0  0  0  0  0  0
   12.5501   -3.2686   14.8192 C   0  0  0  0  0  0  0  0  0  0  0  0
   11.9932   -5.1232   23.2735 O   0  0  0  0  0  0  0  0  0  0  0  0
   12.1432   -3.6328   15.5813 C   0  0  0  0  0  0  0  0  0  0  0  0
    6.4970   -7.3575   17.9678 C   0  0  0  0  0  0  0  0  0  0  0  0
    0.7960   -8.6174   14.5946 C   0  0  0  0  0  0  0  0  0  0  0  0
    5.5012   -7.8568   17.5907 C   0  0  0  0  0  0  0  0  0  0  0  0
   10.1839   -4.4601   17.4456 C   0  0  0  0  0  0  0  0  0  0  0  0
   10.7410   -6.1068   19.6463 C   0  0  0  0  0  0  0  0  0  0  0  0
   10.2664   -5.0756   17.2840 C   0  0  0  0  0  0  0  0  0  0  0  0
    9.3098   -5.8884   17.2633 C   0  0  0  0  0  0  0  0  0  0  0  0
    4.8732   -7.5251   16.0616 C   0  0  0  0  0  0  0  0  0  0  0  0
   -0.3171   -8.2378   15.2870 N   0  0  0  0  0  0  0  0  0  0  0  0
    2.4068   -8.8432   16.2601 C   0  0  0  0  0  0  0  0  0  0  0  0
    8.3074   -7.9650   16.4140 C   0  0  0  0  0  0  0  0  0  0  0  0
    5.3790   -7.7576   16.3881 C   0  0  0  0  0  0  0  0  0  0  0  0
    8.3977   -6.7622   16.7732 C   0  0  0  0  0  0  0  0  0  0  0  0
   13.9532   -2.7782   14.5690 C   0  0  0  0  0  0  0  0  0  0  0  0
   10.5819   -5.8563   19.2621 C   0  0  0  0  0  0  0  0  0  0  0  0
    7.5891   -7.5659   17.2721 C   0  0  0  0  0  0  0  0  0  0  0  0
   11.1234   -3.9052   16.1308 N   0  0  0  0  0  0  0  0  0  0  0  0
   13.8935   -2.7467   13.3296 O   0  0  0  0  0  0  0  0  0  0  0  0
    0.2419   -7.3800   16.1258 C   0  0  0  0  0  0  0  0  0  0  0  0
  1  6  4  0
  1 10  4  0
  2 29  1  0
  3 19  4  0
  3 32  4  0
  4  9  1  0
  4 14  1  0
  5 11  1  0
  5 23  4  0
  5 25  1  0
  6 12  4  0
  6 20  4  0
  7 11  1  0
  7 17  1  0
  7 34  1  0
 12 20  4  0
 13 15  1  0
 13 29  1  0
 15 32  1  0
 16 18  4  0
 16 31  4  0
 17 24  1  0
 18 27  4  0
 20 30  4  0
 21 22  4  0
 21 30  4  0
 22 28  1  0
 23 27  4  0
 24 34  1  0
 26 28  1  0
 29 33  2  0
M  END
$$$$

 Created by Python create_sdf_string function

 34 50  0  0  0  0  0  0  0  0999 V2000
   10.7442   -4.2136   20.1691 C   0  0  0  0  0  0  0  0  0  0  0  0
   14.3153   -2.6058   14.7217 O   0  0  0  0  0  0  0  0  0  0  0  0
   10.6587   -3.8710   16.8951 C   0  0  0  0  0  0  0  0  0  0  0  0
   11.0409   -4.0323   23.5378 P   0  0  0  0  0  0  0  0  0  0  0  0
    1.8475   -6.3861   14.5405 C   0  0  0  0  0  0  0  0  0  0  0  0
   12.1592   -1.7596   14.3918 C   0  0  0  0  0  0  0  0  0  0  0  0
   11.9278   -4.3520   23.2925 O   0  0  0  0  0  0  0  0  0  0  0  0
   12.3666   -3.2341   15.1078 C   0  0  0  0  0  0  0  0  0  0  0  0
    1.7419   -9.1502   15.1090 C   0  0  0  0  0  0  0  0  0  0  0  0
    5.8471   -7.9610   18.8004 C   0  0  0  0  0  0  0  0  0  0  0  0
   10.3309   -4.9570   17.6842 C   0  0  0  0  0  0  0  0  0  0  0  0
   10.7422   -6.1229   19.3457 N   0  0  0  0  0  0  0  0  0  0  0  0
   -0.4134   -7.6388   14.9101 N   0  0  0  0  0  0  0  0  0  0  0  0
    3.4381   -9.4051   15.9942 Cl  0  0  0  0  0  0  0  0  0  0  0  0
    8.1858   -7.1353   17.0322 C   0  0  0  0  0  0  0  0  0  0  0  0
    9.0591   -7.4181   16.7399 Cl  0  0  0  0  0  0  0  0  0  0  0  0
   14.5958   -2.3184   14.5518 B   0  0  0  0  0  0  0  0  0  0  0  0
   10.0403   -6.1867   19.8622 S   0  0  0  0  0  0  0  0  0  0  0  0
    8.5206   -7.7705   17.0963 C   0  0  0  0  0  0  0  0  0  0  0  0
    2.8696   -8.4367   17.0916 He  0  0  0  0  0  0  0  0  0  0  0  0
   11.2755   -4.8704   21.0899 He  0  0  0  0  0  0  0  0  0  0  0  0
    9.2107   -9.1405   17.8914 He  0  0  0  0  0  0  0  0  0  0  0  0
   11.2133   -2.8731   22.3228 He  0  0  0  0  0  0  0  0  0  0  0  0
   10.8281   -4.4702   21.1373 He  0  0  0  0  0  0  0  0  0  0  0  0
    0.8171   -7.5096   16.1935 He  0  0  0  0  0  0  0  0  0  0  0  0
   12.1703   -5.7714   20.5179 He  0  0  0  0  0  0  0  0  0  0  0  0
    6.9698   -7.7851   18.2199 He  0  0  0  0  0  0  0  0  0  0  0  0
   10.2795   -5.3816   16.7258 He  0  0  0  0  0  0  0  0  0  0  0  0
   10.3194   -5.3818   17.0345 He  0  0  0  0  0  0  0  0  0  0  0  0
    4.2589   -6.7026   15.6827 He  0  0  0  0  0  0  0  0  0  0  0  0
    5.0528   -8.3598   16.4137 He  0  0  0  0  0  0  0  0  0  0  0  0
   10.4931   -4.0718   16.9246 He  0  0  0  0  0  0  0  0  0  0  0  0
   14.6712   -3.2642   12.3796 He  0  0  0  0  0  0  0  0  0  0  0  0
    0.3461   -7.4799   17.0034 He  0  0  0  0  0  0  0  0  0  0  0  0
  1  4  1  0
  1  6  2  0
  1  8  3  0
  1  9  2  0
  1 11  2  0
  2 11  1  0
  2 17  2  0
  2 19  4  0
  3  5  3  0
  3  6  1  0
  4  5  4  0
  4  7  1  0
  4 15  4  0
  4 17  3  0
  5  6  4  0
  5  7  1  0
  5  9  1  0
  5 11  4  0
  5 12  1  0
  5 13  2  0
  5 15  2  0
  6  7  4  0
  6 17  1  0
  6 19  3  0
  7  9  4  0
  7 15  3  0
  7 16  2  0
  8 12  4  0
  8 13  1  0
  8 16  1  0
  9 10  3  0
  9 12  4  0
  9 13  1  0
  9 14  4  0
  9 18  2  0
 10 11  3  0
 10 13  1  0
 10 15  1  0
 10 17  3  0
 11 12  2  0
 11 13  4  0
 11 16  3  0
 11 19  1  0
 12 18  4  0
 13 14  4  0
 14 16  2  0
 15 19  3  0
 16 18  2  0
 17 18  1  0
 18 19  4  0
M  END
$$$$

 Created by Python create_sdf_string function

 34 34  0  0  0  0  0  0  0  0999 V2000
   10.7051   -3.9734   20.0376 C   0  0  0  0  0  0  0  0  0  0  0  0
   14.6575   -2.4890   14.7374 O   0  0  0  0  0  0  0  0  0  0  0  0
   10.9138   -3.6875   17.1391 C   0  0  0  0  0  0  0  0  0  0  0  0
   11.2349   -3.7753   22.8623 C   0  0  0  0  0  0  0  0  0  0  0  0
    3.1313   -8.0668   16.4948 C   0  0  0  0  0  0  0  0  0  0  0  0
   11.6837   -4.7995   21.0458 C   0  0  0  0  0  0  0  0  0  0  0  0
    1.4602   -7.1647   14.9487 C   0  0  0  0  0  0  0  0  0  0  0  0
    9.0045   -8.4567   17.8259 C   0  0  0  0  0  0  0  0  0  0  0  0
   10.8878   -2.6347   22.8276 O   0  0  0  0  0  0  0  0  0  0  0  0
   10.9802   -4.2069   21.4971 C   0  0  0  0  0  0  0  0  0  0  0  0
    1.3909   -7.5143   16.0299 C   0  0  0  0  0  0  0  0  0  0  0  0
   11.9044   -5.4384   20.4593 C   0  0  0  0  0  0  0  0  0  0  0  0
   12.6500   -2.8536   14.6784 C   0  0  0  0  0  0  0  0  0  0  0  0
   11.6146   -4.4431   23.7090 O   0  0  0  0  0  0  0  0  0  0  0  0
   12.1653   -3.4459   15.1345 C   0  0  0  0  0  0  0  0  0  0  0  0
    6.6955   -7.9965   18.0361 C   0  0  0  0  0  0  0  0  0  0  0  0
    1.4064   -8.8516   15.1080 C   0  0  0  0  0  0  0  0  0  0  0  0
    5.9203   -8.0620   17.7083 C   0  0  0  0  0  0  0  0  0  0  0  0
   10.6121   -4.5081   18.2931 C   0  0  0  0  0  0  0  0  0  0  0  0
   10.6032   -5.5708   19.2014 C   0  0  0  0  0  0  0  0  0  0  0  0
    9.7527   -5.5109   17.0646 C   0  0  0  0  0  0  0  0  0  0  0  0
    9.7739   -5.2644   16.3274 C   0  0  0  0  0  0  0  0  0  0  0  0
    4.2886   -7.5185   16.4087 C   0  0  0  0  0  0  0  0  0  0  0  0
   -0.1857   -7.8390   14.9425 N   0  0  0  0  0  0  0  0  0  0  0  0
    3.1085   -8.8847   16.3387 C   0  0  0  0  0  0  0  0  0  0  0  0
    7.6435   -7.1092   16.7953 C   0  0  0  0  0  0  0  0  0  0  0  0
    5.1648   -7.9425   16.7890 C   0  0  0  0  0  0  0  0  0  0  0  0
    8.7338   -6.5301   16.8619 C   0  0  0  0  0  0  0  0  0  0  0  0
   13.8991   -2.7260   14.0653 C   0  0  0  0  0  0  0  0  0  0  0  0
   10.4348   -6.2725   19.2600 C   0  0  0  0  0  0  0  0  0  0  0  0
    7.9724   -7.8791   17.6727 C   0  0  0  0  0  0  0  0  0  0  0  0
   11.1889   -3.9569   16.1816 C   0  0  0  0  0  0  0  0  0  0  0  0
   14.1461   -3.0400   12.8610 O   0  0  0  0  0  0  0  0  0  0  0  0
    0.5681   -7.4709   16.5678 C   0  0  0  0  0  0  0  0  0  0  0  0
  1 10  4  0
  1 19  4  0
  2 29  2  0
  3 19  4  0
  3 32  4  0
  4  9  2  0
  4 10  1  0
  4 14  1  0
  5 11  1  0
  5 23  4  0
  5 25  1  0
  6 10  4  0
  6 12  4  0
  7 11  1  0
  7 17  1  0
  8 31  1  0
 11 34  1  0
 12 30  4  0
 13 15  1  0
 13 29  1  0
 15 32  1  0
 16 18  4  0
 16 31  4  0
 17 24  1  0
 18 27  4  0
 20 30  4  0
 21 22  4  0
 21 28  4  0
 22 28  4  0
 22 32  4  0
 23 27  4  0
 26 28  4  0
 26 31  4  0
 29 33  1  0
M  END
$$$$

 Created by Python create_sdf_string function

 34 59  0  0  0  0  0  0  0  0999 V2000
   11.1303   -2.7152   19.9146 N   0  0  0  0  0  0  0  0  0  0  0  0
   14.4417   -2.6102   14.8344 O   0  0  0  0  0  0  0  0  0  0  0  0
   10.5498   -3.5173   23.1575 C   0  0  0  0  0  0  0  0  0  0  0  0
    1.5338   -7.2041   13.6072 C   0  0  0  0  0  0  0  0  0  0  0  0
    8.5468   -8.8845   17.3259 S   0  0  0  0  0  0  0  0  0  0  0  0
   10.5687   -4.1254   23.6352 O   0  0  0  0  0  0  0  0  0  0  0  0
   11.3821   -5.1090   22.6814 S   0  0  0  0  0  0  0  0  0  0  0  0
   11.7711   -3.3312   14.0313 C   0  0  0  0  0  0  0  0  0  0  0  0
    0.0912   -9.0621   15.7418 C   0  0  0  0  0  0  0  0  0  0  0  0
    9.7286   -5.4941   19.4368 N   0  0  0  0  0  0  0  0  0  0  0  0
   10.4781   -5.7543   17.8766 Cl  0  0  0  0  0  0  0  0  0  0  0  0
    9.7181   -5.9117   15.4073 F   0  0  0  0  0  0  0  0  0  0  0  0
    2.5829   -8.5097   16.8965 O   0  0  0  0  0  0  0  0  0  0  0  0
    6.9307   -7.3751   16.2816 C   0  0  0  0  0  0  0  0  0  0  0  0
    7.5997   -5.7703   16.9666 O   0  0  0  0  0  0  0  0  0  0  0  0
   13.4935   -3.4515   14.6524 C   0  0  0  0  0  0  0  0  0  0  0  0
   11.5493   -6.5785   19.7123 C   0  0  0  0  0  0  0  0  0  0  0  0
    8.3169   -9.1452   17.2972 C   0  0  0  0  0  0  0  0  0  0  0  0
   11.3623   -3.8980   16.8710 C   0  0  0  0  0  0  0  0  0  0  0  0
    0.4846   -7.2418   16.4154 P   0  0  0  0  0  0  0  0  0  0  0  0
   11.6561   -3.4477   16.7415 He  0  0  0  0  0  0  0  0  0  0  0  0
    3.7551   -7.7441   16.4207 He  0  0  0  0  0  0  0  0  0  0  0  0
   11.7494   -4.9489   20.2893 He  0  0  0  0  0  0  0  0  0  0  0  0
    1.4389   -8.4598   15.8314 He  0  0  0  0  0  0  0  0  0  0  0  0
   12.1152   -5.2337   20.4967 He  0  0  0  0  0  0  0  0  0  0  0  0
   12.1687   -3.4941   24.8457 He  0  0  0  0  0  0  0  0  0  0  0  0
   12.5953   -3.0071   16.6197 He  0  0  0  0  0  0  0  0  0  0  0  0
    6.6252   -8.9786   18.2086 He  0  0  0  0  0  0  0  0  0  0  0  0
    5.2619   -8.6923   18.7118 He  0  0  0  0  0  0  0  0  0  0  0  0
   12.2636   -4.2224   18.6935 He  0  0  0  0  0  0  0  0  0  0  0  0
    4.3712   -7.3618   15.7745 He  0  0  0  0  0  0  0  0  0  0  0  0
   -0.1100   -7.1146   15.1330 He  0  0  0  0  0  0  0  0  0  0  0  0
    5.5029   -8.0481   17.6559 He  0  0  0  0  0  0  0  0  0  0  0  0
   14.5159   -3.1768   13.1588 He  0  0  0  0  0  0  0  0  0  0  0  0
  1  4  4  0
  1  6  2  0
  1  7  4  0
  1 11  2  0
  1 12  4  0
  1 14  2  0
  1 16  3  0
  2  3  4  0
  2  4  2  0
  2  6  3  0
  2  7  2  0
  2 12  2  0
  2 14  1  0
  2 18  1  0
  2 19  1  0
  3  7  1  0
  3 10  1  0
  3 12  4  0
  3 14  1  0
  3 16  3  0
  3 18  2  0
  3 19  2  0
  4  8  3  0
  4  9  1  0
  4 10  1  0
  4 12  3  0
  4 19  2  0
  4 20  4  0
  5  6  3  0
  5 11  4  0
  5 14  2  0
  5 18  1  0
  5 20  4  0
  6  9  3  0
  6 11  3  0
  6 12  1  0
  6 13  1  0
  7 11  4  0
  7 12  4  0
  7 17  1  0
  8  9  2  0
  8 11  4  0
  8 13  1  0
  8 16  1  0
  8 18  3  0
 10 16  4  0
 10 17  4  0
 11 12  4  0
 11 19  1  0
 12 13  1  0
 12 15  4  0
 12 19  4  0
 13 17  2  0
 13 18  4  0
 13 19  3  0
 14 18  4  0
 15 16  1  0
 16 18  1  0
 17 20  1  0
M  END
$$$$

 Created by Python create_sdf_string function

 34 29  0  0  0  0  0  0  0  0999 V2000
   11.3429   -3.3292   20.2519 C   0  0  0  0  0  0  0  0  0  0  0  0
   14.2713   -2.3945   14.9457 O   0  0  0  0  0  0  0  0  0  0  0  0
   11.5426   -3.7694   17.2353 N   0  0  0  0  0  0  0  0  0  0  0  0
   11.1702   -3.8970   23.3877 C   0  0  0  0  0  0  0  0  0  0  0  0
    3.3628   -7.7593   16.0595 C   0  0  0  0  0  0  0  0  0  0  0  0
   11.5684   -4.4582   20.9210 C   0  0  0  0  0  0  0  0  0  0  0  0
    1.3813   -7.2525   14.4546 C   0  0  0  0  0  0  0  0  0  0  0  0
    8.8145   -8.2538   17.6757 C   0  0  0  0  0  0  0  0  0  0  0  0
   10.2950   -3.4522   23.6681 O   0  0  0  0  0  0  0  0  0  0  0  0
   11.4891   -4.6492   22.3403 C   0  0  0  0  0  0  0  0  0  0  0  0
    1.8430   -8.1522   15.9792 C   0  0  0  0  0  0  0  0  0  0  0  0
   11.8845   -5.2304   20.4723 C   0  0  0  0  0  0  0  0  0  0  0  0
   12.2710   -3.3989   14.7001 C   0  0  0  0  0  0  0  0  0  0  0  0
   11.9771   -3.7831   24.2977 O   0  0  0  0  0  0  0  0  0  0  0  0
   12.0475   -3.3958   16.0461 C   0  0  0  0  0  0  0  0  0  0  0  0
    6.8280   -8.4870   17.8008 C   0  0  0  0  0  0  0  0  0  0  0  0
    0.3473   -8.4249   15.4496 C   0  0  0  0  0  0  0  0  0  0  0  0
    5.5445   -8.7352   18.0574 C   0  0  0  0  0  0  0  0  0  0  0  0
   11.3004   -3.7105   18.9003 C   0  0  0  0  0  0  0  0  0  0  0  0
   10.2776   -6.0042   18.8385 N   0  0  0  0  0  0  0  0  0  0  0  0
    9.9263   -5.6482   17.5464 C   0  0  0  0  0  0  0  0  0  0  0  0
    9.0777   -5.6389   16.5568 C   0  0  0  0  0  0  0  0  0  0  0  0
    4.4438   -7.6527   16.2749 C   0  0  0  0  0  0  0  0  0  0  0  0
   -0.4046   -7.6831   15.0053 O   0  0  0  0  0  0  0  0  0  0  0  0
    2.8851   -8.6675   16.7557 O   0  0  0  0  0  0  0  0  0  0  0  0
    7.2848   -7.0092   16.4285 C   0  0  0  0  0  0  0  0  0  0  0  0
    5.1598   -8.1568   17.1367 C   0  0  0  0  0  0  0  0  0  0  0  0
    8.0213   -6.1439   16.3492 C   0  0  0  0  0  0  0  0  0  0  0  0
   13.5319   -2.9719   14.3307 C   0  0  0  0  0  0  0  0  0  0  0  0
   11.0185   -5.6569   19.6396 C   0  0  0  0  0  0  0  0  0  0  0  0
    7.8418   -8.0775   17.2516 C   0  0  0  0  0  0  0  0  0  0  0  0
   10.9856   -4.2717   16.8805 C   0  0  0  0  0  0  0  0  0  0  0  0
   13.9226   -3.3465   13.0039 O   0  0  0  0  0  0  0  0  0  0  0  0
    0.8878   -7.4993   16.1691 C   0  0  0  0  0  0  0  0  0  0  0  0
  1  6  4  0
  1 19  4  0
  2 29  2  0
  3 19  4  0
  3 32  4  0
  4  9  1  0
  4 10  1  0
  4 14  1  0
  5 23  4  0
  6 10  1  0
  6 12  4  0
  8 31  4  0
 12 30  4  0
 13 15  1  0
 13 29  1  0
 15 32  1  0
 16 18  4  0
 16 31  4  0
 17 24  1  0
 18 27  4  0
 20 21  4  0
 20 30  4  0
 21 22  4  0
 21 32  1  0
 22 28  4  0
 23 27  4  0
 26 28  4  0
 26 31  4  0
 29 33  1  0
M  END
$$$$

 Created by Python create_sdf_string function

 34 84  0  0  0  0  0  0  0  0999 V2000
   12.0215   -2.5087   20.1529 C   0  0  0  0  0  0  0  0  0  0  0  0
   14.0450   -2.3490   14.8652 O   0  0  0  0  0  0  0  0  0  0  0  0
   12.4770   -4.0120   15.8589 N   0  0  0  0  0  0  0  0  0  0  0  0
    3.8689   -7.9949   16.1397 C   0  0  0  0  0  0  0  0  0  0  0  0
   10.5420   -4.1920   21.6673 N   0  0  0  0  0  0  0  0  0  0  0  0
    1.3054   -6.4157   14.1123 C   0  0  0  0  0  0  0  0  0  0  0  0
    9.4596   -8.9831   17.6762 F   0  0  0  0  0  0  0  0  0  0  0  0
    9.9227   -3.3246   23.9415 O   0  0  0  0  0  0  0  0  0  0  0  0
   11.9164   -6.7267   20.3870 C   0  0  0  0  0  0  0  0  0  0  0  0
   12.2998   -2.3938   14.1720 C   0  0  0  0  0  0  0  0  0  0  0  0
   12.0499   -3.6821   23.4418 P   0  0  0  0  0  0  0  0  0  0  0  0
    6.7633   -9.4958   17.5904 C   0  0  0  0  0  0  0  0  0  0  0  0
    0.2702   -8.9199   16.2044 C   0  0  0  0  0  0  0  0  0  0  0  0
    5.8541   -8.6781   17.6220 Se  0  0  0  0  0  0  0  0  0  0  0  0
   11.3751   -3.3874   19.1427 C   0  0  0  0  0  0  0  0  0  0  0  0
    9.7774   -6.2946   19.2216 N   0  0  0  0  0  0  0  0  0  0  0  0
    9.8606   -5.4714   17.9170 Cl  0  0  0  0  0  0  0  0  0  0  0  0
    8.9601   -5.7333   16.0622 C   0  0  0  0  0  0  0  0  0  0  0  0
    4.3299   -7.6845   17.2163 C   0  0  0  0  0  0  0  0  0  0  0  0
   -0.1382   -5.6865   14.1729 O   0  0  0  0  0  0  0  0  0  0  0  0
    3.2454   -8.7583   16.2309 O   0  0  0  0  0  0  0  0  0  0  0  0
    8.0017   -5.7596   15.7604 C   0  0  0  0  0  0  0  0  0  0  0  0
   13.8611   -3.0978   14.2769 C   0  0  0  0  0  0  0  0  0  0  0  0
   10.2442   -5.1722   20.3885 C   0  0  0  0  0  0  0  0  0  0  0  0
    8.6533   -8.8584   16.1310 F   0  0  0  0  0  0  0  0  0  0  0  0
   10.7089   -4.1346   16.9120 C   0  0  0  0  0  0  0  0  0  0  0  0
   13.9894   -3.4454   12.6483 O   0  0  0  0  0  0  0  0  0  0  0  0
    0.5205   -7.9298   15.8514 C   0  0  0  0  0  0  0  0  0  0  0  0
   10.1609   -5.0806   23.1130 He  0  0  0  0  0  0  0  0  0  0  0  0
   11.8658   -4.6835   22.2250 He  0  0  0  0  0  0  0  0  0  0  0  0
    1.1637   -8.4249   15.9205 He  0  0  0  0  0  0  0  0  0  0  0  0
   12.9618   -3.5001   15.9566 He  0  0  0  0  0  0  0  0  0  0  0  0
    7.1751   -7.2039   17.1241 He  0  0  0  0  0  0  0  0  0  0  0  0
    4.9055   -7.9027   16.5945 He  0  0  0  0  0  0  0  0  0  0  0  0
  1  9  2  0
  1 13  1  0
  1 15  4  0
  1 16  4  0
  1 17  4  0
  1 19  2  0
  1 23  3  0
  1 26  4  0
  2  6  2  0
  2  8  4  0
  2  9  3  0
  2 13  4  0
  2 23  3  0
  2 26  4  0
  2 27  2  0
  3  5  3  0
  3  6  3  0
  3  7  2  0
  3 23  1  0
  4 14  4  0
  4 17  3  0
  4 19  1  0
  4 26  2  0
  5  8  2  0
  5  9  4  0
  5 17  3  0
  5 21  3  0
  5 23  1  0
  5 24  3  0
  5 25  2  0
  5 26  3  0
  5 28  2  0
  6 26  1  0
  6 28  4  0
  7 16  3  0
  7 24  2  0
  7 25  4  0
  7 27  1  0
  7 28  1  0
  8 14  2  0
  8 16  2  0
  8 27  4  0
  9 16  2  0
  9 24  4  0
  9 26  1  0
 10 14  3  0
 10 23  1  0
 10 24  2  0
 11 21  2  0
 12 13  4  0
 12 24  2  0
 12 25  4  0
 12 26  3  0
 13 18  2  0
 13 20  2  0
 13 23  4  0
 13 24  4  0
 13 26  1  0
 13 27  3  0
 14 21  3  0
 14 23  3  0
 14 28  1  0
 15 22  3  0
 15 23  4  0
 16 17  4  0
 16 18  2  0
 16 24  4  0
 16 26  1  0
 17 18  4  0
 17 22  3  0
 17 27  2  0
 18 19  3  0
 18 22  4  0
 19 22  1  0
 19 27  2  0
 20 21  4  0
 20 23  4  0
 20 24  2  0
 20 28  3  0
 22 23  3  0
 22 26  4  0
 25 26  3  0
 25 28  3  0
 26 28  2  0
M  END
$$$$

 Created by Python create_sdf_string function

 34 30  0  0  0  0  0  0  0  0999 V2000
   11.3211   -3.2336   19.7793 C   0  0  0  0  0  0  0  0  0  0  0  0
   14.2938   -2.2397   14.6616 O   0  0  0  0  0  0  0  0  0  0  0  0
   11.6429   -3.9778   16.1806 N   0  0  0  0  0  0  0  0  0  0  0  0
   10.9986   -3.9603   23.2177 C   0  0  0  0  0  0  0  0  0  0  0  0
    3.0325   -7.9720   16.1760 C   0  0  0  0  0  0  0  0  0  0  0  0
   10.8892   -4.4361   21.9717 N   0  0  0  0  0  0  0  0  0  0  0  0
    1.7391   -6.8385   14.7034 C   0  0  0  0  0  0  0  0  0  0  0  0
    8.6194   -8.1861   17.3172 C   0  0  0  0  0  0  0  0  0  0  0  0
   10.1285   -3.2763   23.8576 O   0  0  0  0  0  0  0  0  0  0  0  0
   11.7891   -4.2787   21.8975 C   0  0  0  0  0  0  0  0  0  0  0  0
    1.2479   -8.6921   16.2381 C   0  0  0  0  0  0  0  0  0  0  0  0
   10.9706   -5.4081   20.6574 C   0  0  0  0  0  0  0  0  0  0  0  0
   12.8589   -3.1789   14.1184 C   0  0  0  0  0  0  0  0  0  0  0  0
   11.9921   -3.9585   23.9391 O   0  0  0  0  0  0  0  0  0  0  0  0
   12.3398   -3.2474   15.7552 C   0  0  0  0  0  0  0  0  0  0  0  0
    6.6558   -9.2718   17.0330 C   0  0  0  0  0  0  0  0  0  0  0  0
    0.2771   -8.4570   15.7821 C   0  0  0  0  0  0  0  0  0  0  0  0
    6.1199   -8.1765   16.9625 C   0  0  0  0  0  0  0  0  0  0  0  0
   11.2253   -3.5900   18.5577 C   0  0  0  0  0  0  0  0  0  0  0  0
    9.9760   -5.8217   18.8734 N   0  0  0  0  0  0  0  0  0  0  0  0
    9.9096   -5.3360   17.6430 C   0  0  0  0  0  0  0  0  0  0  0  0
    8.8949   -5.4666   16.5081 C   0  0  0  0  0  0  0  0  0  0  0  0
    3.9686   -7.9211   16.5921 C   0  0  0  0  0  0  0  0  0  0  0  0
   -0.1321   -7.0478   14.4643 O   0  0  0  0  0  0  0  0  0  0  0  0
    2.6469   -8.5644   16.1259 C   0  0  0  0  0  0  0  0  0  0  0  0
    7.5918   -7.2201   16.8718 C   0  0  0  0  0  0  0  0  0  0  0  0
    5.0023   -7.6433   16.8129 C   0  0  0  0  0  0  0  0  0  0  0  0
    7.7330   -6.2057   16.3655 C   0  0  0  0  0  0  0  0  0  0  0  0
   13.1538   -3.0650   14.5541 C   0  0  0  0  0  0  0  0  0  0  0  0
   10.5947   -5.3723   19.7529 C   0  0  0  0  0  0  0  0  0  0  0  0
    8.1409   -9.0602   17.1260 C   0  0  0  0  0  0  0  0  0  0  0  0
   10.9410   -4.3485   17.4703 C   0  0  0  0  0  0  0  0  0  0  0  0
   13.6849   -3.2661   12.7888 O   0  0  0  0  0  0  0  0  0  0  0  0
    1.0545   -7.2853   14.9295 C   0  0  0  0  0  0  0  0  0  0  0  0
  1 19  4  0
  3 15  1  0
  3 32  1  0
  4  6  1  0
  4  9  2  0
  4 14  1  0
  5 23  1  0
  5 25  4  0
  6 10  1  0
  7 34  4  0
  8 26  4  0
  8 31  4  0
 11 17  4  0
 12 30  4  0
 13 15  1  0
 13 29  1  0
 13 33  1  0
 16 18  4  0
 16 31  4  0
 18 26  1  0
 18 27  1  0
 19 32  4  0
 20 21  4  0
 20 30  4  0
 21 22  4  0
 21 32  4  0
 22 28  4  0
 23 27  4  0
 24 34  1  0
 26 28  4  0
M  END
$$$$

 Created by Python create_sdf_string function

 34 78  0  0  0  0  0  0  0  0999 V2000
   14.7509   -2.2975   14.8687 O   0  0  0  0  0  0  0  0  0  0  0  0
   11.6239   -4.0347   16.3899 C   0  0  0  0  0  0  0  0  0  0  0  0
   11.5755   -3.5319   22.8669 P   0  0  0  0  0  0  0  0  0  0  0  0
   10.9513   -4.3992   21.2499 N   0  0  0  0  0  0  0  0  0  0  0  0
    0.7504   -7.0034   14.5281 C   0  0  0  0  0  0  0  0  0  0  0  0
    8.5471   -8.3590   17.2961 C   0  0  0  0  0  0  0  0  0  0  0  0
   11.6926   -4.9394   21.7099 F   0  0  0  0  0  0  0  0  0  0  0  0
    1.0492   -8.2318   16.2656 C   0  0  0  0  0  0  0  0  0  0  0  0
   12.6499   -3.4717   14.0381 C   0  0  0  0  0  0  0  0  0  0  0  0
   12.0433   -4.1282   24.0898 O   0  0  0  0  0  0  0  0  0  0  0  0
    5.9195   -9.2418   17.5466 C   0  0  0  0  0  0  0  0  0  0  0  0
    0.2454   -8.5502   15.7292 C   0  0  0  0  0  0  0  0  0  0  0  0
    5.9742   -8.7434   16.3331 N   0  0  0  0  0  0  0  0  0  0  0  0
   11.2232   -4.1326   19.8640 C   0  0  0  0  0  0  0  0  0  0  0  0
   10.2731   -5.5708   18.5036 N   0  0  0  0  0  0  0  0  0  0  0  0
    9.8235   -4.7743   16.7823 C   0  0  0  0  0  0  0  0  0  0  0  0
    9.1500   -4.8593   16.5024 N   0  0  0  0  0  0  0  0  0  0  0  0
    3.2972   -7.5780   16.4829 C   0  0  0  0  0  0  0  0  0  0  0  0
   -0.6506   -6.9746   13.9401 O   0  0  0  0  0  0  0  0  0  0  0  0
    3.1194   -8.4594   15.9174 C   0  0  0  0  0  0  0  0  0  0  0  0
    8.0774   -7.7803   17.1843 C   0  0  0  0  0  0  0  0  0  0  0  0
    7.3135   -5.3533   16.3459 C   0  0  0  0  0  0  0  0  0  0  0  0
   13.3061   -3.0148   14.6865 C   0  0  0  0  0  0  0  0  0  0  0  0
    9.9604   -5.4921   20.4874 C   0  0  0  0  0  0  0  0  0  0  0  0
    0.6137   -6.7243   15.1654 C   0  0  0  0  0  0  0  0  0  0  0  0
   10.9484   -3.5487   19.8316 He  0  0  0  0  0  0  0  0  0  0  0  0
    2.4694   -8.4734   16.7577 He  0  0  0  0  0  0  0  0  0  0  0  0
   10.2773   -4.6006   22.9368 He  0  0  0  0  0  0  0  0  0  0  0  0
   11.4523   -5.2619   20.1331 He  0  0  0  0  0  0  0  0  0  0  0  0
   11.7541   -3.4011   15.6437 He  0  0  0  0  0  0  0  0  0  0  0  0
    5.2510   -6.7769   17.3964 He  0  0  0  0  0  0  0  0  0  0  0  0
    7.6874   -8.8378   17.5628 He  0  0  0  0  0  0  0  0  0  0  0  0
    9.9671   -3.1805   17.8480 He  0  0  0  0  0  0  0  0  0  0  0  0
   14.3904   -2.7952   12.9349 He  0  0  0  0  0  0  0  0  0  0  0  0
  1  3  2  0
  1  5  4  0
  1 10  4  0
  1 19  1  0
  1 21  1  0
  1 22  4  0
  2  8  1  0
  2 20  3  0
  2 21  1  0
  2 23  2  0
  3  5  2  0
  3  6  1  0
  3  8  1  0
  3  9  1  0
  3 10  1  0
  3 16  1  0
  3 17  4  0
  3 19  4  0
  3 20  1  0
  3 21  4  0
  3 22  2  0
  4  7  1  0
  4  8  3  0
  4 12  1  0
  4 13  4  0
  4 15  2  0
  4 18  3  0
  4 19  2  0
  5  8  2  0
  5 16  2  0
  5 19  4  0
  5 20  3  0
  5 21  1  0
  5 25  4  0
  6 14  1  0
  6 15  1  0
  6 17  4  0
  6 21  4  0
  7 14  4  0
  7 17  4  0
  7 23  4  0
  8 12  4  0
  8 22  1  0
  8 24  4  0
  9 12  3  0
  9 13  4  0
  9 14  1  0
  9 16  1  0
  9 20  1  0
  9 22  4  0
  9 23  3  0
  9 25  1  0
 10 13  2  0
 10 21  4  0
 10 23  1  0
 11 12  2  0
 11 13  4  0
 11 17  1  0
 11 19  4  0
 11 20  4  0
 12 15  3  0
 12 18  2  0
 13 16  1  0
 13 21  1  0
 13 23  4  0
 14 15  4  0
 14 17  4  0
 14 20  2  0
 14 21  3  0
 15 16  4  0
 15 24  3  0
 16 17  4  0
 17 22  4  0
 17 23  1  0
 18 21  3  0
 19 20  4  0
 19 25  2  0
 21 22  4  0
M  END
$$$$

 Created by Python create_sdf_string function

 34 35  0  0  0  0  0  0  0  0999 V2000
   11.1076   -3.2741   19.4349 C   0  0  0  0  0  0  0  0  0  0  0  0
   14.1883   -2.3626   15.0318 O   0  0  0  0  0  0  0  0  0  0  0  0
   11.5296   -3.4750   16.3257 C   0  0  0  0  0  0  0  0  0  0  0  0
   11.2737   -3.9120   23.2485 C   0  0  0  0  0  0  0  0  0  0  0  0
    2.1031   -8.0072   15.9196 C   0  0  0  0  0  0  0  0  0  0  0  0
   11.4211   -4.0458   21.8596 N   0  0  0  0  0  0  0  0  0  0  0  0
    0.8137   -7.0624   14.5287 C   0  0  0  0  0  0  0  0  0  0  0  0
    8.3873   -7.9406   17.4112 C   0  0  0  0  0  0  0  0  0  0  0  0
   10.3491   -3.7146   23.5143 O   0  0  0  0  0  0  0  0  0  0  0  0
   11.7024   -4.6830   21.5058 C   0  0  0  0  0  0  0  0  0  0  0  0
    0.6709   -8.5725   15.9201 C   0  0  0  0  0  0  0  0  0  0  0  0
   10.9648   -4.8070   19.9202 C   0  0  0  0  0  0  0  0  0  0  0  0
   12.8026   -3.2093   13.7691 C   0  0  0  0  0  0  0  0  0  0  0  0
   12.1205   -4.0077   24.0177 O   0  0  0  0  0  0  0  0  0  0  0  0
   12.1273   -3.5260   15.6255 C   0  0  0  0  0  0  0  0  0  0  0  0
    6.2527   -8.8999   17.2447 C   0  0  0  0  0  0  0  0  0  0  0  0
    0.2600   -8.3922   15.6423 C   0  0  0  0  0  0  0  0  0  0  0  0
    6.2494   -7.7530   16.9095 C   0  0  0  0  0  0  0  0  0  0  0  0
   10.9343   -3.7924   18.8309 C   0  0  0  0  0  0  0  0  0  0  0  0
    9.7211   -5.8805   18.4428 N   0  0  0  0  0  0  0  0  0  0  0  0
    9.7963   -4.9595   17.3566 C   0  0  0  0  0  0  0  0  0  0  0  0
    8.8644   -5.1036   16.4048 N   0  0  0  0  0  0  0  0  0  0  0  0
    3.8303   -7.9226   16.4495 C   0  0  0  0  0  0  0  0  0  0  0  0
   -0.4064   -7.4268   14.6344 C   0  0  0  0  0  0  0  0  0  0  0  0
    3.1474   -8.3936   16.4245 C   0  0  0  0  0  0  0  0  0  0  0  0
    7.5878   -7.0975   16.8441 C   0  0  0  0  0  0  0  0  0  0  0  0
    5.3928   -7.5122   16.7234 C   0  0  0  0  0  0  0  0  0  0  0  0
    7.9414   -5.9454   16.2271 C   0  0  0  0  0  0  0  0  0  0  0  0
   13.2328   -2.9311   14.6712 C   0  0  0  0  0  0  0  0  0  0  0  0
   10.4202   -5.7071   19.6042 C   0  0  0  0  0  0  0  0  0  0  0  0
    7.5304   -8.9967   17.3859 C   0  0  0  0  0  0  0  0  0  0  0  0
   10.7948   -3.9865   17.5739 C   0  0  0  0  0  0  0  0  0  0  0  0
   13.9059   -2.9530   12.8266 C   0  0  0  0  0  0  0  0  0  0  0  0
    1.5149   -6.9777   14.7605 C   0  0  0  0  0  0  0  0  0  0  0  0
  1 12  4  0
  1 19  4  0
  2 29  2  0
  3 15  1  0
  3 32  1  0
  4  6  1  0
  4  9  2  0
  4 14  1  0
  5 11  4  0
  5 25  1  0
  6 10  1  0
  7 24  4  0
  7 34  4  0
  8 26  4  0
  8 31  4  0
 10 12  1  0
 11 17  4  0
 12 30  4  0
 13 29  1  0
 13 33  1  0
 15 29  1  0
 16 18  4  0
 16 31  4  0
 17 24  4  0
 18 26  1  0
 18 27  4  0
 19 32  4  0
 20 21  4  0
 20 30  4  0
 21 22  4  0
 21 32  4  0
 22 28  4  0
 23 25  1  0
 23 27  4  0
 26 28  4  0
M  END
$$$$

 Created by Python create_sdf_string function

 34 83  0  0  0  0  0  0  0  0999 V2000
   11.6466   -3.3126   18.7874 N   0  0  0  0  0  0  0  0  0  0  0  0
    1.8051   -8.3888   15.9330 C   0  0  0  0  0  0  0  0  0  0  0  0
   11.9921   -2.9208   22.8761 C   0  0  0  0  0  0  0  0  0  0  0  0
    0.0844   -7.2193   14.1560 C   0  0  0  0  0  0  0  0  0  0  0  0
   10.8027   -3.5159   23.1814 C   0  0  0  0  0  0  0  0  0  0  0  0
   12.3679   -4.6998   21.3730 C   0  0  0  0  0  0  0  0  0  0  0  0
   11.0755   -4.9379   19.0231 Cl  0  0  0  0  0  0  0  0  0  0  0  0
   12.0548   -2.9913   13.5008 C   0  0  0  0  0  0  0  0  0  0  0  0
   12.5283   -4.0116   22.4807 F   0  0  0  0  0  0  0  0  0  0  0  0
   12.0661   -3.3600   16.2984 F   0  0  0  0  0  0  0  0  0  0  0  0
    6.3035   -8.6460   17.4049 S   0  0  0  0  0  0  0  0  0  0  0  0
    0.7974   -8.6967   15.4516 C   0  0  0  0  0  0  0  0  0  0  0  0
    6.6819   -7.9628   16.5184 Cl  0  0  0  0  0  0  0  0  0  0  0  0
   10.7775   -3.7830   19.2316 O   0  0  0  0  0  0  0  0  0  0  0  0
    9.6253   -5.8241   18.3819 N   0  0  0  0  0  0  0  0  0  0  0  0
    9.7507   -4.7013   17.2874 P   0  0  0  0  0  0  0  0  0  0  0  0
    9.3493   -4.8576   17.0420 Cl  0  0  0  0  0  0  0  0  0  0  0  0
   -0.4011   -6.7829   14.6412 C   0  0  0  0  0  0  0  0  0  0  0  0
    3.5672   -8.0564   15.8160 C   0  0  0  0  0  0  0  0  0  0  0  0
    6.5043   -7.0612   16.5480 C   0  0  0  0  0  0  0  0  0  0  0  0
    6.1079   -8.4135   16.7333 C   0  0  0  0  0  0  0  0  0  0  0  0
   13.7508   -1.4296   14.8268 C   0  0  0  0  0  0  0  0  0  0  0  0
   11.8141   -6.2632   20.5501 S   0  0  0  0  0  0  0  0  0  0  0  0
   11.3044   -3.2802   16.6227 Se  0  0  0  0  0  0  0  0  0  0  0  0
   14.6832   -2.9049   12.8129 Br  0  0  0  0  0  0  0  0  0  0  0  0
   14.7130   -2.2197   14.8570 He  0  0  0  0  0  0  0  0  0  0  0  0
   10.9782   -3.8852   16.5843 He  0  0  0  0  0  0  0  0  0  0  0  0
   12.1142   -4.3758   23.6733 He  0  0  0  0  0  0  0  0  0  0  0  0
    7.7942   -8.1168   17.5567 He  0  0  0  0  0  0  0  0  0  0  0  0
    0.5890   -8.0396   16.0745 He  0  0  0  0  0  0  0  0  0  0  0  0
    4.1487   -7.1803   16.8879 He  0  0  0  0  0  0  0  0  0  0  0  0
    8.5548   -6.6022   16.3008 He  0  0  0  0  0  0  0  0  0  0  0  0
    7.1375   -9.5931   17.1873 He  0  0  0  0  0  0  0  0  0  0  0  0
    2.3672   -6.2414   14.5668 He  0  0  0  0  0  0  0  0  0  0  0  0
  1  2  1  0
  1  3  2  0
  1  7  2  0
  1 13  1  0
  1 17  3  0
  1 18  2  0
  1 19  2  0
  1 20  1  0
  1 21  3  0
  2  4  3  0
  2 20  4  0
  2 21  4  0
  2 22  1  0
  2 23  4  0
  3  6  1  0
  3  9  1  0
  3 10  3  0
  3 15  1  0
  3 16  3  0
  3 19  3  0
  3 23  2  0
  4  5  1  0
  4  8  4  0
  4 18  4  0
  4 22  1  0
  4 24  4  0
  5  8  1  0
  5 11  4  0
  5 19  1  0
  5 22  4  0
  6  7  3  0
  6  9  3  0
  6 13  3  0
  6 15  2  0
  6 16  1  0
  6 21  2  0
  6 24  2  0
  7  9  3  0
  7 12  1  0
  7 20  1  0
  7 23  1  0
  8 10  4  0
  8 14  4  0
  8 21  1  0
  8 22  1  0
  8 23  4  0
  8 25  1  0
  9 19  4  0
 10 13  4  0
 10 22  3  0
 10 24  1  0
 10 25  1  0
 11 13  4  0
 11 14  2  0
 11 19  2  0
 11 22  4  0
 11 23  1  0
 11 24  4  0
 12 14  3  0
 12 18  4  0
 12 25  1  0
 13 14  3  0
 13 15  3  0
 13 21  4  0
 13 22  1  0
 14 15  4  0
 14 24  3  0
 15 19  4  0
 15 22  3  0
 15 23  4  0
 16 19  1  0
 16 23  4  0
 16 24  3  0
 17 22  2  0
 18 21  2  0
 19 20  2  0
 19 23  1  0
 19 24  1  0
 19 25  3  0
 20 21  3  0
 20 22  2  0
 21 25  4  0
 22 25  4  0
M  END
$$$$

 Created by Python create_sdf_string function

 34 31  0  0  0  0  0  0  0  0999 V2000
   11.3850   -3.3475   18.3345 N   0  0  0  0  0  0  0  0  0  0  0  0
   14.2262   -1.9008   15.0252 O   0  0  0  0  0  0  0  0  0  0  0  0
   10.4544   -4.0109   16.1056 C   0  0  0  0  0  0  0  0  0  0  0  0
   12.0104   -4.0135   23.6264 C   0  0  0  0  0  0  0  0  0  0  0  0
    1.9505   -8.0193   15.8465 C   0  0  0  0  0  0  0  0  0  0  0  0
   11.9875   -3.2595   22.7367 C   0  0  0  0  0  0  0  0  0  0  0  0
    0.7099   -6.8002   14.2305 C   0  0  0  0  0  0  0  0  0  0  0  0
    7.7854   -7.3900   16.9593 C   0  0  0  0  0  0  0  0  0  0  0  0
   10.8409   -3.5271   23.0869 C   0  0  0  0  0  0  0  0  0  0  0  0
   12.0646   -4.3009   21.5773 C   0  0  0  0  0  0  0  0  0  0  0  0
    0.8073   -8.6078   15.8708 C   0  0  0  0  0  0  0  0  0  0  0  0
   11.1709   -4.5279   19.6783 C   0  0  0  0  0  0  0  0  0  0  0  0
   12.5458   -3.1008   14.0726 C   0  0  0  0  0  0  0  0  0  0  0  0
   12.4968   -4.1894   22.4444 C   0  0  0  0  0  0  0  0  0  0  0  0
   12.2269   -3.1861   15.8319 N   0  0  0  0  0  0  0  0  0  0  0  0
    6.3631   -9.1740   17.5000 C   0  0  0  0  0  0  0  0  0  0  0  0
    0.3655   -8.5582   15.6373 C   0  0  0  0  0  0  0  0  0  0  0  0
    5.4921   -8.2844   16.8529 C   0  0  0  0  0  0  0  0  0  0  0  0
   11.0171   -4.0036   19.1602 C   0  0  0  0  0  0  0  0  0  0  0  0
    9.8606   -5.8708   18.6714 N   0  0  0  0  0  0  0  0  0  0  0  0
    9.9156   -5.0950   17.5305 C   0  0  0  0  0  0  0  0  0  0  0  0
    9.5096   -4.9425   16.7055 C   0  0  0  0  0  0  0  0  0  0  0  0
    4.0457   -7.8107   16.2950 O   0  0  0  0  0  0  0  0  0  0  0  0
    0.0518   -7.2447   14.4681 C   0  0  0  0  0  0  0  0  0  0  0  0
    3.0392   -7.8388   15.9461 C   0  0  0  0  0  0  0  0  0  0  0  0
    6.6465   -6.9853   16.3798 C   0  0  0  0  0  0  0  0  0  0  0  0
    5.5426   -7.6220   16.4522 C   0  0  0  0  0  0  0  0  0  0  0  0
    8.8231   -6.6219   16.6557 C   0  0  0  0  0  0  0  0  0  0  0  0
   13.5113   -2.4838   14.5921 C   0  0  0  0  0  0  0  0  0  0  0  0
   11.4193   -5.1734   20.6650 C   0  0  0  0  0  0  0  0  0  0  0  0
    7.6389   -8.6905   17.4504 C   0  0  0  0  0  0  0  0  0  0  0  0
   11.4439   -3.5378   16.6361 C   0  0  0  0  0  0  0  0  0  0  0  0
   13.9243   -2.8082   12.9143 C   0  0  0  0  0  0  0  0  0  0  0  0
    2.0548   -6.6507   14.6286 C   0  0  0  0  0  0  0  0  0  0  0  0
  1 19  4  0
  1 32  4  0
  2 29  2  0
  3 22  4  0
  3 32  4  0
  4  6  1  0
  4 14  1  0
  5 11  4  0
  5 25  1  0
  7 24  4  0
  7 34  4  0
  8 26  4  0
  8 28  1  0
  8 31  4  0
 10 14  4  0
 11 17  4  0
 12 19  4  0
 12 30  1  0
 13 29  1  0
 13 33  1  0
 15 32  1  0
 16 18  4  0
 16 31  4  0
 17 24  4  0
 18 23  1  0
 18 27  4  0
 20 21  4  0
 21 22  4  0
 23 25  1  0
 26 27  4  0
 29 33  1  0
M  END
$$$$

 Created by Python create_sdf_string function

 34 81  0  0  0  0  0  0  0  0999 V2000
   10.8491   -4.4033   16.1409 C   0  0  0  0  0  0  0  0  0  0  0  0
   11.8796   -3.6597   22.8815 F   0  0  0  0  0  0  0  0  0  0  0  0
   11.3800   -4.1238   22.6927 C   0  0  0  0  0  0  0  0  0  0  0  0
    0.8354   -6.2595   14.2509 C   0  0  0  0  0  0  0  0  0  0  0  0
    7.4479   -7.2665   16.6388 C   0  0  0  0  0  0  0  0  0  0  0  0
   10.9233   -4.0547   22.5038 I   0  0  0  0  0  0  0  0  0  0  0  0
   12.0845   -4.0382   21.4868 I   0  0  0  0  0  0  0  0  0  0  0  0
    1.7396   -9.0506   16.1811 F   0  0  0  0  0  0  0  0  0  0  0  0
   11.0392   -4.7811   19.4900 Br  0  0  0  0  0  0  0  0  0  0  0  0
   12.1427   -3.6124   13.0828 B   0  0  0  0  0  0  0  0  0  0  0  0
   13.2253   -5.1504   22.8068 C   0  0  0  0  0  0  0  0  0  0  0  0
   13.3249   -3.5614   15.6774 N   0  0  0  0  0  0  0  0  0  0  0  0
    5.4889   -9.6186   17.5619 C   0  0  0  0  0  0  0  0  0  0  0  0
    1.0246   -8.4197   15.7027 C   0  0  0  0  0  0  0  0  0  0  0  0
    6.1281   -7.9810   16.2586 F   0  0  0  0  0  0  0  0  0  0  0  0
   11.0701   -3.7976   19.2414 C   0  0  0  0  0  0  0  0  0  0  0  0
   10.8484   -5.6357   18.9674 N   0  0  0  0  0  0  0  0  0  0  0  0
    9.9622   -4.4536   16.5903 C   0  0  0  0  0  0  0  0  0  0  0  0
    9.7135   -5.5401   17.3574 C   0  0  0  0  0  0  0  0  0  0  0  0
    4.0702   -7.2611   16.5329 O   0  0  0  0  0  0  0  0  0  0  0  0
    3.3447   -7.5560   15.5733 C   0  0  0  0  0  0  0  0  0  0  0  0
    4.8984   -6.5792   16.9798 F   0  0  0  0  0  0  0  0  0  0  0  0
   13.4496   -2.4125   14.1651 C   0  0  0  0  0  0  0  0  0  0  0  0
   11.4468   -5.3950   20.8040 C   0  0  0  0  0  0  0  0  0  0  0  0
   11.7840   -3.5559   16.7042 N   0  0  0  0  0  0  0  0  0  0  0  0
   11.5443   -3.0625   17.7486 He  0  0  0  0  0  0  0  0  0  0  0  0
   14.5051   -0.5087   15.1605 He  0  0  0  0  0  0  0  0  0  0  0  0
    2.7691   -8.0477   16.4712 He  0  0  0  0  0  0  0  0  0  0  0  0
   -0.5440   -5.8435   14.1955 He  0  0  0  0  0  0  0  0  0  0  0  0
    7.5131   -6.4090   16.2640 He  0  0  0  0  0  0  0  0  0  0  0  0
    8.6892   -6.0738   16.6998 He  0  0  0  0  0  0  0  0  0  0  0  0
    7.5742   -8.5692   17.8585 He  0  0  0  0  0  0  0  0  0  0  0  0
   13.4331   -4.1279   12.6406 He  0  0  0  0  0  0  0  0  0  0  0  0
    1.5658   -6.4690   14.6370 He  0  0  0  0  0  0  0  0  0  0  0  0
  1  3  1  0
  1  4  4  0
  1  6  3  0
  1 19  4  0
  1 20  3  0
  2  4  2  0
  2 11  4  0
  2 12  4  0
  2 14  2  0
  2 17  1  0
  2 18  4  0
  2 23  4  0
  3  6  1  0
  3 23  2  0
  3 24  2  0
  4  8  2  0
  4 11  4  0
  4 14  3  0
  4 18  4  0
  4 21  1  0
  4 23  1  0
  4 24  4  0
  4 25  2  0
  5  7  3  0
  5 11  3  0
  5 15  3  0
  5 16  2  0
  5 21  3  0
  5 25  3  0
  6 13  4  0
  6 22  4  0
  6 24  1  0
  7 11  4  0
  7 25  1  0
  8 11  2  0
  8 14  4  0
  8 19  3  0
  8 23  1  0
  9 12  3  0
  9 14  3  0
  9 16  4  0
  9 22  3  0
  9 24  1  0
 10 24  1  0
 11 16  1  0
 11 17  2  0
 11 18  3  0
 11 21  4  0
 12 15  2  0
 12 16  2  0
 12 22  1  0
 12 23  4  0
 12 24  3  0
 13 15  4  0
 13 16  1  0
 13 24  2  0
 14 17  3  0
 14 20  4  0
 14 25  1  0
 15 17  4  0
 15 18  1  0
 15 20  1  0
 15 21  1  0
 16 17  1  0
 16 20  2  0
 17 18  4  0
 17 20  1  0
 17 21  1  0
 17 22  2  0
 17 24  1  0
 18 19  4  0
 18 21  4  0
 18 22  1  0
 19 24  1  0
 20 21  1  0
 20 23  1  0
 20 24  3  0
 20 25  2  0
 23 24  3  0
 23 25  3  0
 24 25  3  0
M  END
$$$$

 Created by Python create_sdf_string function

 34 38  0  0  0  0  0  0  0  0999 V2000
   11.6249   -3.2801   17.6727 C   0  0  0  0  0  0  0  0  0  0  0  0
   14.0454   -1.6054   14.6490 O   0  0  0  0  0  0  0  0  0  0  0  0
   10.9028   -4.2965   15.8155 C   0  0  0  0  0  0  0  0  0  0  0  0
   12.3205   -4.0938   23.3452 C   0  0  0  0  0  0  0  0  0  0  0  0
    2.5168   -8.1142   15.8542 C   0  0  0  0  0  0  0  0  0  0  0  0
   11.0781   -3.8413   23.0374 C   0  0  0  0  0  0  0  0  0  0  0  0
    1.1012   -6.7039   14.2972 C   0  0  0  0  0  0  0  0  0  0  0  0
    7.4723   -7.2706   16.9834 C   0  0  0  0  0  0  0  0  0  0  0  0
   10.6330   -3.9760   21.7679 C   0  0  0  0  0  0  0  0  0  0  0  0
   12.5963   -4.8927   21.1441 C   0  0  0  0  0  0  0  0  0  0  0  0
    1.4734   -8.6455   16.0354 C   0  0  0  0  0  0  0  0  0  0  0  0
   10.9288   -4.6229   19.4732 C   0  0  0  0  0  0  0  0  0  0  0  0
   12.6129   -3.3510   13.3640 C   0  0  0  0  0  0  0  0  0  0  0  0
   13.1289   -4.7182   22.3963 C   0  0  0  0  0  0  0  0  0  0  0  0
   12.7444   -3.1338   15.5845 N   0  0  0  0  0  0  0  0  0  0  0  0
    6.1365   -8.8770   17.3241 C   0  0  0  0  0  0  0  0  0  0  0  0
    0.3359   -8.2884   15.5040 C   0  0  0  0  0  0  0  0  0  0  0  0
    5.3952   -7.9359   16.7092 C   0  0  0  0  0  0  0  0  0  0  0  0
   11.2798   -3.8754   18.6354 C   0  0  0  0  0  0  0  0  0  0  0  0
    9.9752   -5.3274   18.7448 N   0  0  0  0  0  0  0  0  0  0  0  0
    9.9087   -5.0694   17.5395 C   0  0  0  0  0  0  0  0  0  0  0  0
    9.8496   -4.8076   16.6286 C   0  0  0  0  0  0  0  0  0  0  0  0
    4.4539   -7.7526   15.9793 O   0  0  0  0  0  0  0  0  0  0  0  0
    0.0789   -7.1544   14.4918 C   0  0  0  0  0  0  0  0  0  0  0  0
    3.4650   -7.5731   15.7623 C   0  0  0  0  0  0  0  0  0  0  0  0
    7.3063   -6.6010   16.5650 C   0  0  0  0  0  0  0  0  0  0  0  0
    6.0882   -6.9851   16.6823 C   0  0  0  0  0  0  0  0  0  0  0  0
    8.6678   -6.1848   16.6391 N   0  0  0  0  0  0  0  0  0  0  0  0
   13.4314   -2.5547   14.4487 C   0  0  0  0  0  0  0  0  0  0  0  0
   11.3776   -4.5858   20.8877 C   0  0  0  0  0  0  0  0  0  0  0  0
    7.4173   -8.5020   17.5047 C   0  0  0  0  0  0  0  0  0  0  0  0
   11.7582   -3.5041   16.3912 C   0  0  0  0  0  0  0  0  0  0  0  0
   13.4943   -3.3459   12.8721 C   0  0  0  0  0  0  0  0  0  0  0  0
    2.2649   -6.6638   14.6886 C   0  0  0  0  0  0  0  0  0  0  0  0
  1 19  4  0
  1 32  4  0
  2 29  2  0
  3 22  4  0
  3 32  4  0
  4  6  4  0
  4 14  4  0
  5 11  4  0
  5 25  1  0
  6  9  4  0
  7 24  4  0
  7 34  4  0
  8 26  4  0
  8 28  1  0
  8 31  4  0
  9 30  4  0
 10 14  4  0
 10 30  4  0
 11 17  4  0
 12 19  4  0
 12 20  4  0
 12 30  1  0
 13 29  1  0
 13 33  1  0
 15 29  1  0
 15 32  1  0
 16 18  4  0
 16 31  4  0
 17 24  4  0
 18 23  1  0
 18 27  4  0
 20 21  4  0
 21 22  4  0
 21 28  1  0
 23 25  1  0
 26 27  4  0
 26 28  1  0
 29 33  1  0
M  END
$$$$

 Created by Python create_sdf_string function

 34 78  0  0  0  0  0  0  0  0999 V2000
   11.6736   -2.9706   17.9169 C   0  0  0  0  0  0  0  0  0  0  0  0
   13.6797   -1.3423   14.2303 O   0  0  0  0  0  0  0  0  0  0  0  0
   10.5084   -3.6870   15.4270 C   0  0  0  0  0  0  0  0  0  0  0  0
    2.1843   -7.8670   16.1795 C   0  0  0  0  0  0  0  0  0  0  0  0
   10.9323   -3.9513   23.4379 C   0  0  0  0  0  0  0  0  0  0  0  0
    1.3008   -6.6605   14.3829 C   0  0  0  0  0  0  0  0  0  0  0  0
    7.1387   -7.0661   16.7877 C   0  0  0  0  0  0  0  0  0  0  0  0
   11.0212   -4.3259   21.8374 C   0  0  0  0  0  0  0  0  0  0  0  0
    2.1766   -8.5505   16.6812 N   0  0  0  0  0  0  0  0  0  0  0  0
   11.4192   -4.4433   19.0590 C   0  0  0  0  0  0  0  0  0  0  0  0
   12.8183   -2.7430   12.7588 C   0  0  0  0  0  0  0  0  0  0  0  0
    6.6301   -8.4580   16.9165 C   0  0  0  0  0  0  0  0  0  0  0  0
    0.9774   -9.0534   15.1411 O   0  0  0  0  0  0  0  0  0  0  0  0
    5.1326   -9.0286   16.3654 C   0  0  0  0  0  0  0  0  0  0  0  0
   10.8660   -3.8351   18.6944 C   0  0  0  0  0  0  0  0  0  0  0  0
   10.1744   -5.1875   18.9743 N   0  0  0  0  0  0  0  0  0  0  0  0
   10.2765   -4.6178   17.2406 F   0  0  0  0  0  0  0  0  0  0  0  0
   10.1807   -4.2188   16.6562 C   0  0  0  0  0  0  0  0  0  0  0  0
    3.9494   -8.1519   16.1809 O   0  0  0  0  0  0  0  0  0  0  0  0
    0.1699   -7.8291   14.0382 C   0  0  0  0  0  0  0  0  0  0  0  0
    7.9779   -6.6209   16.2318 C   0  0  0  0  0  0  0  0  0  0  0  0
    5.9423   -7.2814   16.2037 C   0  0  0  0  0  0  0  0  0  0  0  0
    8.3697   -7.9463   17.1670 N   0  0  0  0  0  0  0  0  0  0  0  0
   11.4272   -4.3883   20.7746 C   0  0  0  0  0  0  0  0  0  0  0  0
   11.6964   -2.9873   16.0652 N   0  0  0  0  0  0  0  0  0  0  0  0
   13.0751   -2.8880   12.4280 C   0  0  0  0  0  0  0  0  0  0  0  0
    1.7051   -6.8994   13.7656 C   0  0  0  0  0  0  0  0  0  0  0  0
   12.3994   -3.6007   23.2113 He  0  0  0  0  0  0  0  0  0  0  0  0
   13.5480   -6.1423   20.2673 He  0  0  0  0  0  0  0  0  0  0  0  0
   13.5842   -5.0581   22.1020 He  0  0  0  0  0  0  0  0  0  0  0  0
   12.6953   -2.7650   16.1777 He  0  0  0  0  0  0  0  0  0  0  0  0
    3.7258   -7.6701   16.2116 He  0  0  0  0  0  0  0  0  0  0  0  0
   13.4527   -2.3366   14.5492 He  0  0  0  0  0  0  0  0  0  0  0  0
    7.8083   -8.5255   17.9069 He  0  0  0  0  0  0  0  0  0  0  0  0
  1  4  3  0
  1 15  4  0
  1 25  4  0
  1 26  1  0
  2  9  4  0
  2 10  3  0
  2 23  3  0
  2 26  3  0
  3  9  1  0
  3 18  4  0
  3 25  3  0
  4  5  2  0
  4  6  2  0
  4  8  4  0
  4  9  4  0
  4 12  3  0
  4 14  2  0
  4 16  4  0
  4 18  3  0
  4 26  4  0
  5  6  3  0
  5  8  3  0
  5 14  3  0
  5 25  1  0
  6 11  2  0
  6 18  4  0
  6 20  4  0
  7 20  4  0
  7 21  4  0
  7 23  1  0
  8 12  4  0
  8 22  1  0
  8 24  4  0
  9 21  3  0
  9 25  4  0
 10 15  4  0
 10 16  4  0
 10 17  4  0
 10 24  1  0
 10 25  3  0
 11 13  1  0
 11 16  4  0
 11 17  3  0
 11 21  1  0
 11 26  1  0
 12 13  3  0
 12 14  4  0
 12 20  1  0
 13 15  2  0
 13 18  2  0
 13 22  3  0
 13 23  2  0
 13 24  4  0
 13 25  4  0
 13 26  3  0
 14 16  3  0
 14 19  1  0
 14 20  3  0
 14 22  3  0
 14 26  4  0
 15 26  4  0
 15 27  3  0
 16 20  2  0
 16 24  2  0
 17 18  4  0
 17 19  3  0
 17 23  1  0
 17 27  4  0
 18 23  3  0
 19 22  2  0
 20 27  4  0
 21 22  4  0
 21 23  1  0
 21 26  2  0
 21 27  2  0
 23 25  3  0
 25 26  1  0
 25 27  2  0
M  END
$$$$

 Created by Python create_sdf_string function

 34 37  0  0  0  0  0  0  0  0999 V2000
   11.6149   -3.2501   17.4374 C   0  0  0  0  0  0  0  0  0  0  0  0
   13.8796   -1.4704   14.3085 O   0  0  0  0  0  0  0  0  0  0  0  0
   10.8929   -3.8160   15.5099 C   0  0  0  0  0  0  0  0  0  0  0  0
   12.6367   -4.3889   23.1698 C   0  0  0  0  0  0  0  0  0  0  0  0
    2.4076   -7.7842   15.6983 C   0  0  0  0  0  0  0  0  0  0  0  0
   11.2821   -4.0284   22.9608 C   0  0  0  0  0  0  0  0  0  0  0  0
    1.9739   -6.7907   14.6304 C   0  0  0  0  0  0  0  0  0  0  0  0
    8.1023   -7.2282   17.1605 C   0  0  0  0  0  0  0  0  0  0  0  0
   10.7819   -4.1374   21.6700 C   0  0  0  0  0  0  0  0  0  0  0  0
   12.7641   -5.0643   20.8878 C   0  0  0  0  0  0  0  0  0  0  0  0
    1.6232   -8.8265   15.9342 N   0  0  0  0  0  0  0  0  0  0  0  0
   11.0142   -4.5920   19.2716 C   0  0  0  0  0  0  0  0  0  0  0  0
   12.7837   -3.0226   13.1195 C   0  0  0  0  0  0  0  0  0  0  0  0
   13.3443   -4.9395   22.2104 C   0  0  0  0  0  0  0  0  0  0  0  0
   12.6969   -2.7792   15.5322 N   0  0  0  0  0  0  0  0  0  0  0  0
    6.4790   -9.0428   17.3133 C   0  0  0  0  0  0  0  0  0  0  0  0
    0.4811   -8.9835   15.1555 C   0  0  0  0  0  0  0  0  0  0  0  0
    5.7169   -8.1404   16.5868 C   0  0  0  0  0  0  0  0  0  0  0  0
   11.3495   -3.5997   18.6207 C   0  0  0  0  0  0  0  0  0  0  0  0
   10.2793   -5.4422   18.9341 N   0  0  0  0  0  0  0  0  0  0  0  0
    9.9433   -5.2178   17.4415 C   0  0  0  0  0  0  0  0  0  0  0  0
   10.0436   -4.5877   16.3867 C   0  0  0  0  0  0  0  0  0  0  0  0
    4.3593   -8.2796   16.4484 O   0  0  0  0  0  0  0  0  0  0  0  0
    0.2724   -8.1425   14.1633 C   0  0  0  0  0  0  0  0  0  0  0  0
    3.5410   -7.5565   16.2974 C   0  0  0  0  0  0  0  0  0  0  0  0
    7.2601   -6.6236   16.2676 C   0  0  0  0  0  0  0  0  0  0  0  0
    6.2212   -7.0652   16.0144 C   0  0  0  0  0  0  0  0  0  0  0  0
    9.2036   -6.3667   17.3884 N   0  0  0  0  0  0  0  0  0  0  0  0
   13.1315   -2.4319   14.3713 C   0  0  0  0  0  0  0  0  0  0  0  0
   11.5270   -4.6154   20.7191 C   0  0  0  0  0  0  0  0  0  0  0  0
    7.7844   -8.3915   17.5750 C   0  0  0  0  0  0  0  0  0  0  0  0
   11.7688   -3.1641   16.1986 N   0  0  0  0  0  0  0  0  0  0  0  0
   13.0794   -2.9703   12.3098 C   0  0  0  0  0  0  0  0  0  0  0  0
    1.0440   -7.0938   13.9701 C   0  0  0  0  0  0  0  0  0  0  0  0
  1 19  4  0
  1 32  4  0
  2 29  2  0
  3 22  4  0
  3 32  4  0
  4  6  4  0
  4 14  4  0
  5  7  4  0
  5 11  4  0
  5 25  1  0
  6  9  4  0
  7 34  4  0
  8 26  4  0
  8 28  1  0
  8 31  4  0
  9 30  4  0
 10 14  4  0
 10 30  4  0
 11 17  4  0
 12 19  4  0
 12 20  4  0
 12 30  1  0
 13 29  1  0
 13 33  1  0
 15 29  1  0
 15 32  1  0
 16 18  4  0
 16 31  4  0
 17 24  4  0
 18 23  1  0
 18 27  4  0
 20 21  4  0
 21 22  4  0
 21 28  1  0
 23 25  1  0
 24 34  4  0
 26 27  4  0
M  END
$$$$

 Created by Python create_sdf_string function

 34111  0  0  0  0  0  0  0  0999 V2000
   12.7179   -3.3206   17.2114 C   0  0  0  0  0  0  0  0  0  0  0  0
   10.2668   -3.7520   15.8776 O   0  0  0  0  0  0  0  0  0  0  0  0
   12.0434   -4.6012   23.0898 C   0  0  0  0  0  0  0  0  0  0  0  0
   11.9203   -4.0592   22.8730 S   0  0  0  0  0  0  0  0  0  0  0  0
    1.4478   -7.1587   13.9931 C   0  0  0  0  0  0  0  0  0  0  0  0
    7.9431   -7.5602   17.7794 C   0  0  0  0  0  0  0  0  0  0  0  0
   10.2537   -4.6099   21.9900 C   0  0  0  0  0  0  0  0  0  0  0  0
   12.7773   -4.6113   20.9277 S   0  0  0  0  0  0  0  0  0  0  0  0
    1.7548   -8.9160   15.8860 Cl  0  0  0  0  0  0  0  0  0  0  0  0
   11.1182   -3.8957   18.8858 F   0  0  0  0  0  0  0  0  0  0  0  0
   13.4571   -4.9485   21.9095 C   0  0  0  0  0  0  0  0  0  0  0  0
   12.9002   -2.6615   15.5252 N   0  0  0  0  0  0  0  0  0  0  0  0
    5.9690   -8.1816   17.4611 F   0  0  0  0  0  0  0  0  0  0  0  0
    0.5801   -9.1513   14.7294 C   0  0  0  0  0  0  0  0  0  0  0  0
    5.3335   -7.7796   16.9854 C   0  0  0  0  0  0  0  0  0  0  0  0
   10.8130   -3.8297   17.9916 O   0  0  0  0  0  0  0  0  0  0  0  0
    9.8509   -5.5887   16.7907 C   0  0  0  0  0  0  0  0  0  0  0  0
    9.9137   -4.9252   15.9059 C   0  0  0  0  0  0  0  0  0  0  0  0
    3.9822   -8.2158   17.1944 O   0  0  0  0  0  0  0  0  0  0  0  0
    0.1749   -7.8417   13.0844 C   0  0  0  0  0  0  0  0  0  0  0  0
    2.8492   -7.2639   16.1377 C   0  0  0  0  0  0  0  0  0  0  0  0
    7.2289   -6.3498   16.3318 O   0  0  0  0  0  0  0  0  0  0  0  0
    6.8259   -7.3879   16.7480 C   0  0  0  0  0  0  0  0  0  0  0  0
    8.6879   -6.2599   17.3830 N   0  0  0  0  0  0  0  0  0  0  0  0
   13.5556   -1.5523   13.9552 C   0  0  0  0  0  0  0  0  0  0  0  0
   12.0151   -4.3552   21.7224 C   0  0  0  0  0  0  0  0  0  0  0  0
   11.9782   -2.8156   16.3277 C   0  0  0  0  0  0  0  0  0  0  0  0
   13.6238   -3.5985   13.3527 O   0  0  0  0  0  0  0  0  0  0  0  0
    1.2212   -7.3917   14.0319 N   0  0  0  0  0  0  0  0  0  0  0  0
   14.1240   -1.6321   14.2612 He  0  0  0  0  0  0  0  0  0  0  0  0
    2.0078   -7.5438   15.5942 He  0  0  0  0  0  0  0  0  0  0  0  0
   12.9506   -2.7636   13.6294 He  0  0  0  0  0  0  0  0  0  0  0  0
    9.9653   -5.7242   18.5569 He  0  0  0  0  0  0  0  0  0  0  0  0
    7.8631   -8.0867   18.3046 He  0  0  0  0  0  0  0  0  0  0  0  0
  1  2  2  0
  1  3  3  0
  1  6  1  0
  1  8  4  0
  1 12  1  0
  1 16  4  0
  1 25  1  0
  1 27  2  0
  2  4  4  0
  2  7  4  0
  2 12  2  0
  2 18  1  0
  2 27  1  0
  2 28  1  0
  3  7  1  0
  3  9  2  0
  3 11  4  0
  3 12  2  0
  3 20  3  0
  3 26  2  0
  4  6  2  0
  4  7  4  0
  4  9  2  0
  4 17  1  0
  4 20  1  0
  5  9  3  0
  5 10  1  0
  5 14  3  0
  5 15  1  0
  5 16  4  0
  5 22  3  0
  5 23  4  0
  5 24  2  0
  5 28  1  0
  5 29  4  0
  6 13  2  0
  6 16  2  0
  6 19  1  0
  6 21  4  0
  6 22  4  0
  6 24  1  0
  6 28  2  0
  7 10  4  0
  7 11  4  0
  7 13  3  0
  7 16  3  0
  7 17  2  0
  7 21  3  0
  7 26  4  0
  8 11  4  0
  8 15  4  0
  8 22  4  0
  8 25  1  0
  8 26  1  0
  9 12  4  0
  9 14  4  0
  9 18  1  0
  9 19  4  0
  9 23  1  0
  9 27  2  0
  9 29  2  0
 10 13  3  0
 10 16  4  0
 10 21  2  0
 10 22  2  0
 10 25  1  0
 10 26  4  0
 10 27  3  0
 11 14  3  0
 11 20  3  0
 11 23  1  0
 11 28  2  0
 12 18  1  0
 12 19  3  0
 12 22  3  0
 12 24  1  0
 12 25  4  0
 12 27  1  0
 13 15  4  0
 13 16  4  0
 13 22  3  0
 13 23  1  0
 14 26  3  0
 14 28  3  0
 15 18  4  0
 15 22  3  0
 15 23  4  0
 15 27  3  0
 16 17  1  0
 16 19  2  0
 16 21  1  0
 16 26  2  0
 17 23  3  0
 17 24  1  0
 18 20  2  0
 18 24  4  0
 18 28  4  0
 18 29  4  0
 19 24  4  0
 19 26  1  0
 19 28  2  0
 19 29  2  0
 20 22  1  0
 20 28  2  0
 21 22  1  0
 21 25  2  0
 21 27  4  0
 21 29  2  0
 22 29  1  0
 23 26  2  0
 23 29  2  0
M  END
$$$$

 Created by Python create_sdf_string function

 34 37  0  0  0  0  0  0  0  0999 V2000
   11.6486   -3.3879   17.5371 C   0  0  0  0  0  0  0  0  0  0  0  0
   14.2793   -1.3986   14.4068 O   0  0  0  0  0  0  0  0  0  0  0  0
   10.6842   -3.9101   15.6071 O   0  0  0  0  0  0  0  0  0  0  0  0
   12.4595   -4.6960   23.1851 C   0  0  0  0  0  0  0  0  0  0  0  0
    2.1323   -7.7976   15.3731 C   0  0  0  0  0  0  0  0  0  0  0  0
   11.2163   -4.2291   22.9810 C   0  0  0  0  0  0  0  0  0  0  0  0
    1.7868   -6.8126   14.3361 C   0  0  0  0  0  0  0  0  0  0  0  0
    7.9980   -6.9444   17.2226 C   0  0  0  0  0  0  0  0  0  0  0  0
   10.7242   -4.0230   21.6775 C   0  0  0  0  0  0  0  0  0  0  0  0
   12.7618   -5.0598   20.8761 C   0  0  0  0  0  0  0  0  0  0  0  0
    1.4675   -8.9932   15.5259 C   0  0  0  0  0  0  0  0  0  0  0  0
   10.9726   -4.5363   19.3642 C   0  0  0  0  0  0  0  0  0  0  0  0
   12.8190   -2.9781   13.8674 C   0  0  0  0  0  0  0  0  0  0  0  0
   13.2803   -5.0620   22.2481 C   0  0  0  0  0  0  0  0  0  0  0  0
   12.5971   -2.8497   15.2147 N   0  0  0  0  0  0  0  0  0  0  0  0
    6.2825   -8.3851   17.9525 C   0  0  0  0  0  0  0  0  0  0  0  0
    0.4161   -9.2910   14.6908 C   0  0  0  0  0  0  0  0  0  0  0  0
    5.4373   -7.8745   17.0474 C   0  0  0  0  0  0  0  0  0  0  0  0
   11.4721   -3.5890   18.5780 C   0  0  0  0  0  0  0  0  0  0  0  0
   10.0687   -5.3836   18.7938 C   0  0  0  0  0  0  0  0  0  0  0  0
    9.7521   -5.4513   17.5539 C   0  0  0  0  0  0  0  0  0  0  0  0
   10.2441   -4.4753   16.7370 C   0  0  0  0  0  0  0  0  0  0  0  0
    4.1344   -8.2427   16.9400 O   0  0  0  0  0  0  0  0  0  0  0  0
    0.1103   -8.3065   13.7156 C   0  0  0  0  0  0  0  0  0  0  0  0
    3.2084   -7.5001   16.1630 C   0  0  0  0  0  0  0  0  0  0  0  0
    7.1212   -6.4210   16.2834 C   0  0  0  0  0  0  0  0  0  0  0  0
    5.9342   -6.9985   16.2032 C   0  0  0  0  0  0  0  0  0  0  0  0
    9.1353   -6.4610   17.1809 N   0  0  0  0  0  0  0  0  0  0  0  0
   13.7161   -1.9102   14.0099 C   0  0  0  0  0  0  0  0  0  0  0  0
   11.4625   -4.4796   20.7073 C   0  0  0  0  0  0  0  0  0  0  0  0
    7.5414   -7.9717   18.0825 C   0  0  0  0  0  0  0  0  0  0  0  0
   11.9631   -3.2795   16.0141 C   0  0  0  0  0  0  0  0  0  0  0  0
   13.4512   -3.5091   13.1515 O   0  0  0  0  0  0  0  0  0  0  0  0
    0.8514   -7.1689   13.6960 C   0  0  0  0  0  0  0  0  0  0  0  0
  1 19  4  0
  1 22  4  0
  2 29  2  0
  3 22  1  0
  3 32  1  0
  4  6  4  0
  4 14  4  0
  5  7  4  0
  5 11  4  0
  5 25  1  0
  6  9  4  0
  7 34  4  0
  8 26  4  0
  8 28  1  0
  8 31  4  0
  9 30  4  0
 10 14  4  0
 10 30  4  0
 11 17  4  0
 12 19  4  0
 12 20  4  0
 12 30  1  0
 13 15  1  0
 13 29  1  0
 13 33  1  0
 15 32  1  0
 16 18  4  0
 16 31  4  0
 17 24  4  0
 18 23  1  0
 18 27  4  0
 20 21  4  0
 21 22  4  0
 21 28  1  0
 23 25  1  0
 24 34  4  0
 26 27  4  0
M  END
$$$$

 Created by Python create_sdf_string function

 34 69  0  0  0  0  0  0  0  0999 V2000
   11.6648   -3.3597   17.6878 C   0  0  0  0  0  0  0  0  0  0  0  0
   14.5523   -1.0743   14.4507 O   0  0  0  0  0  0  0  0  0  0  0  0
   10.9160   -3.4567   15.9092 O   0  0  0  0  0  0  0  0  0  0  0  0
   12.5468   -4.1956   23.7042 C   0  0  0  0  0  0  0  0  0  0  0  0
   10.8447   -3.8648   23.4360 C   0  0  0  0  0  0  0  0  0  0  0  0
    1.7378   -6.1439   14.6410 C   0  0  0  0  0  0  0  0  0  0  0  0
   10.7851   -4.0090   20.3625 C   0  0  0  0  0  0  0  0  0  0  0  0
    1.8827   -9.6947   15.0666 C   0  0  0  0  0  0  0  0  0  0  0  0
   11.5064   -4.6280   19.3765 C   0  0  0  0  0  0  0  0  0  0  0  0
   14.0568   -5.2340   21.7443 C   0  0  0  0  0  0  0  0  0  0  0  0
    6.7368   -7.6844   17.7401 C   0  0  0  0  0  0  0  0  0  0  0  0
   -0.1732   -9.3474   14.2111 C   0  0  0  0  0  0  0  0  0  0  0  0
    6.1256   -8.1642   17.1415 C   0  0  0  0  0  0  0  0  0  0  0  0
   11.7135   -4.4231   18.7424 C   0  0  0  0  0  0  0  0  0  0  0  0
    9.2374   -5.9838   18.7958 C   0  0  0  0  0  0  0  0  0  0  0  0
   10.1038   -5.7342   17.3372 C   0  0  0  0  0  0  0  0  0  0  0  0
   10.2465   -4.4149   17.5704 O   0  0  0  0  0  0  0  0  0  0  0  0
    3.8390   -7.8232   16.7286 O   0  0  0  0  0  0  0  0  0  0  0  0
    0.5507   -7.7340   13.6832 C   0  0  0  0  0  0  0  0  0  0  0  0
    2.4974   -7.7761   16.8027 Br  0  0  0  0  0  0  0  0  0  0  0  0
    7.3297   -6.4644   17.0632 N   0  0  0  0  0  0  0  0  0  0  0  0
    5.5363   -7.2133   15.8707 C   0  0  0  0  0  0  0  0  0  0  0  0
    8.2356   -6.4392   17.1802 F   0  0  0  0  0  0  0  0  0  0  0  0
   13.9163   -2.9186   14.7991 F   0  0  0  0  0  0  0  0  0  0  0  0
   11.8508   -4.0339   20.7889 C   0  0  0  0  0  0  0  0  0  0  0  0
   12.8843   -2.9698   16.6767 C   0  0  0  0  0  0  0  0  0  0  0  0
   13.7633   -4.2589   13.0633 O   0  0  0  0  0  0  0  0  0  0  0  0
    2.6827   -7.4239   15.6294 He  0  0  0  0  0  0  0  0  0  0  0  0
    7.9747   -7.2642   17.2934 He  0  0  0  0  0  0  0  0  0  0  0  0
   12.7812   -5.4902   20.7300 He  0  0  0  0  0  0  0  0  0  0  0  0
   12.8070   -3.1385   14.3202 He  0  0  0  0  0  0  0  0  0  0  0  0
   12.3237   -2.9533   15.9779 He  0  0  0  0  0  0  0  0  0  0  0  0
    7.7410   -8.0982   17.7479 He  0  0  0  0  0  0  0  0  0  0  0  0
   -0.2844   -8.0847   13.2013 He  0  0  0  0  0  0  0  0  0  0  0  0
  1 11  3  0
  1 14  2  0
  1 17  1  0
  1 20  2  0
  1 27  1  0
  2  6  1  0
  2 12  1  0
  2 22  1  0
  2 24  2  0
  3  5  3  0
  3  9  1  0
  3 11  1  0
  3 17  1  0
  3 23  3  0
  3 26  1  0
  3 27  3  0
  4 10  3  0
  4 14  2  0
  4 16  4  0
  4 18  1  0
  4 21  3  0
  4 22  3  0
  4 25  4  0
  5 14  4  0
  5 17  1  0
  5 22  2  0
  7 24  1  0
  7 25  4  0
  8 12  4  0
  8 15  1  0
  8 21  2  0
  8 23  3  0
  8 26  1  0
  9 12  3  0
  9 15  4  0
  9 20  4  0
  9 25  1  0
  9 27  4  0
 10 14  2  0
 10 22  4  0
 10 24  1  0
 10 27  4  0
 11 15  2  0
 11 20  1  0
 11 26  2  0
 12 15  4  0
 12 17  4  0
 12 21  1  0
 12 23  3  0
 13 14  3  0
 13 18  1  0
 13 21  4  0
 13 22  4  0
 14 16  3  0
 14 24  3  0
 15 16  2  0
 15 20  2  0
 15 21  3  0
 15 25  1  0
 16 17  4  0
 16 21  3  0
 16 23  2  0
 17 21  1  0
 17 23  4  0
 18 19  2  0
 21 22  4  0
 22 24  4  0
 22 25  3  0
 24 26  1  0
M  END
$$$$

 Created by Python create_sdf_string function

 34 38  0  0  0  0  0  0  0  0999 V2000
   11.4655   -3.6713   17.6951 C   0  0  0  0  0  0  0  0  0  0  0  0
   14.5420   -1.5759   14.5057 O   0  0  0  0  0  0  0  0  0  0  0  0
   10.7743   -3.8225   15.7776 O   0  0  0  0  0  0  0  0  0  0  0  0
   12.5664   -4.4872   23.4182 C   0  0  0  0  0  0  0  0  0  0  0  0
    2.0180   -7.9243   15.3528 C   0  0  0  0  0  0  0  0  0  0  0  0
   11.3319   -3.9981   23.0276 C   0  0  0  0  0  0  0  0  0  0  0  0
    1.6492   -6.8772   14.5229 C   0  0  0  0  0  0  0  0  0  0  0  0
    7.8371   -6.8718   17.0810 C   0  0  0  0  0  0  0  0  0  0  0  0
   10.8639   -4.0516   21.6788 C   0  0  0  0  0  0  0  0  0  0  0  0
   12.8949   -5.1487   21.0987 C   0  0  0  0  0  0  0  0  0  0  0  0
    1.4447   -9.1282   15.1906 C   0  0  0  0  0  0  0  0  0  0  0  0
   11.1242   -4.8309   19.5656 C   0  0  0  0  0  0  0  0  0  0  0  0
   12.7281   -3.2442   14.1365 C   0  0  0  0  0  0  0  0  0  0  0  0
   13.3804   -5.0434   22.4733 C   0  0  0  0  0  0  0  0  0  0  0  0
   12.2445   -3.2054   15.5023 C   0  0  0  0  0  0  0  0  0  0  0  0
    6.1858   -8.3417   17.9011 C   0  0  0  0  0  0  0  0  0  0  0  0
    0.4106   -9.3640   14.2775 C   0  0  0  0  0  0  0  0  0  0  0  0
    5.3798   -7.8617   16.9684 C   0  0  0  0  0  0  0  0  0  0  0  0
   11.6227   -3.8533   18.8470 C   0  0  0  0  0  0  0  0  0  0  0  0
   10.1549   -5.7316   18.8688 C   0  0  0  0  0  0  0  0  0  0  0  0
    9.7813   -5.4763   17.6132 C   0  0  0  0  0  0  0  0  0  0  0  0
   10.5561   -4.3862   17.0252 C   0  0  0  0  0  0  0  0  0  0  0  0
    3.9870   -8.2846   16.8620 O   0  0  0  0  0  0  0  0  0  0  0  0
    0.4999   -7.0694   13.7722 C   0  0  0  0  0  0  0  0  0  0  0  0
    3.0342   -7.6058   16.3377 C   0  0  0  0  0  0  0  0  0  0  0  0
    6.9600   -6.4548   16.1186 C   0  0  0  0  0  0  0  0  0  0  0  0
    5.8021   -6.9784   16.1038 C   0  0  0  0  0  0  0  0  0  0  0  0
    9.0642   -6.2595   17.0546 O   0  0  0  0  0  0  0  0  0  0  0  0
   13.7373   -2.4897   14.5522 C   0  0  0  0  0  0  0  0  0  0  0  0
   11.6863   -4.7211   20.8179 C   0  0  0  0  0  0  0  0  0  0  0  0
    7.4906   -7.8534   17.8799 C   0  0  0  0  0  0  0  0  0  0  0  0
   12.8419   -2.7304   15.9160 C   0  0  0  0  0  0  0  0  0  0  0  0
   13.6149   -3.7543   13.0093 O   0  0  0  0  0  0  0  0  0  0  0  0
   -0.0096   -8.1583   13.6316 C   0  0  0  0  0  0  0  0  0  0  0  0
  1 19  4  0
  1 22  4  0
  2 29  2  0
  3 15  1  0
  3 22  1  0
  4  6  4  0
  4 14  4  0
  5  7  4  0
  5 11  4  0
  5 25  1  0
  6  9  4  0
  7 24  4  0
  8 26  4  0
  8 28  1  0
  8 31  4  0
  9 30  4  0
 10 14  4  0
 10 30  4  0
 11 17  4  0
 12 19  4  0
 12 20  4  0
 12 30  1  0
 13 15  1  0
 13 29  1  0
 13 33  1  0
 15 32  1  0
 16 18  4  0
 16 31  4  0
 17 34  4  0
 18 23  1  0
 18 27  4  0
 20 21  4  0
 21 22  4  0
 21 28  1  0
 23 25  1  0
 24 34  4  0
 26 27  4  0
 29 32  1  0
M  END
$$$$

 Created by Python create_sdf_string function

 34 56  0  0  0  0  0  0  0  0999 V2000
   11.5426   -3.5582   17.5667 C   0  0  0  0  0  0  0  0  0  0  0  0
   12.1529   -3.9301   23.3863 C   0  0  0  0  0  0  0  0  0  0  0  0
    2.0317   -8.4436   15.8332 C   0  0  0  0  0  0  0  0  0  0  0  0
   11.5606   -4.2548   23.3444 C   0  0  0  0  0  0  0  0  0  0  0  0
    1.5024   -6.7861   15.5925 C   0  0  0  0  0  0  0  0  0  0  0  0
   11.8187   -3.8152   21.7108 C   0  0  0  0  0  0  0  0  0  0  0  0
   12.1837   -5.0800   21.2730 C   0  0  0  0  0  0  0  0  0  0  0  0
   12.0858   -3.3195   14.4368 C   0  0  0  0  0  0  0  0  0  0  0  0
   13.7051   -4.8161   23.0355 C   0  0  0  0  0  0  0  0  0  0  0  0
   11.4923   -3.1626   15.2204 C   0  0  0  0  0  0  0  0  0  0  0  0
    0.6991   -9.0915   15.0041 O   0  0  0  0  0  0  0  0  0  0  0  0
    5.4889   -7.6909   17.8337 C   0  0  0  0  0  0  0  0  0  0  0  0
   11.4139   -3.5427   19.3835 O   0  0  0  0  0  0  0  0  0  0  0  0
    9.8672   -5.2392   19.2987 C   0  0  0  0  0  0  0  0  0  0  0  0
   10.2527   -5.2523   17.3759 C   0  0  0  0  0  0  0  0  0  0  0  0
   -0.0693   -6.7053   14.1000 C   0  0  0  0  0  0  0  0  0  0  0  0
    3.4354   -8.1593   16.3162 C   0  0  0  0  0  0  0  0  0  0  0  0
    6.9111   -6.0002   16.2954 C   0  0  0  0  0  0  0  0  0  0  0  0
    5.8011   -8.0724   16.4439 C   0  0  0  0  0  0  0  0  0  0  0  0
    8.6976   -5.4953   17.4592 O   0  0  0  0  0  0  0  0  0  0  0  0
   13.9319   -2.2965   14.8815 C   0  0  0  0  0  0  0  0  0  0  0  0
    8.3481   -7.6430   17.6871 C   0  0  0  0  0  0  0  0  0  0  0  0
   12.8695   -3.0200   16.1252 C   0  0  0  0  0  0  0  0  0  0  0  0
   13.4515   -3.1405   12.8689 O   0  0  0  0  0  0  0  0  0  0  0  0
    0.6294   -8.1100   14.0092 C   0  0  0  0  0  0  0  0  0  0  0  0
   14.6789   -1.9422   15.6268 He  0  0  0  0  0  0  0  0  0  0  0  0
   11.7360   -3.9162   15.7383 He  0  0  0  0  0  0  0  0  0  0  0  0
    7.7418   -6.7585   16.6735 He  0  0  0  0  0  0  0  0  0  0  0  0
    1.0547   -9.0866   14.8994 He  0  0  0  0  0  0  0  0  0  0  0  0
   11.2417   -5.3540   19.5431 He  0  0  0  0  0  0  0  0  0  0  0  0
    5.7397   -8.8218   17.5943 He  0  0  0  0  0  0  0  0  0  0  0  0
   10.4883   -4.4087   16.0961 He  0  0  0  0  0  0  0  0  0  0  0  0
    3.8119   -8.8527   17.3858 He  0  0  0  0  0  0  0  0  0  0  0  0
   11.4125   -5.1152   20.3461 He  0  0  0  0  0  0  0  0  0  0  0  0
  1  7  3  0
  1 13  4  0
  1 17  4  0
  1 23  2  0
  2  4  4  0
  2  5  1  0
  2 16  4  0
  3  5  4  0
  3 17  4  0
  3 24  3  0
  4  6  4  0
  4 17  1  0
  4 19  1  0
  4 20  4  0
  4 21  2  0
  4 25  3  0
  5  9  4  0
  5 12  2  0
  5 16  3  0
  6  7  4  0
  6 20  2  0
  6 22  2  0
  7 15  1  0
  7 17  2  0
  8 10  4  0
  8 17  2  0
  8 19  4  0
  8 21  1  0
  9 11  4  0
  9 16  1  0
  9 19  3  0
  9 20  2  0
  9 24  2  0
 10 21  3  0
 10 23  1  0
 11 17  2  0
 11 23  1  0
 11 25  4  0
 12 16  3  0
 12 19  4  0
 13 20  2  0
 13 23  2  0
 14 15  4  0
 14 17  3  0
 16 17  1  0
 16 24  4  0
 16 25  4  0
 17 21  2  0
 17 24  2  0
 18 23  3  0
 19 23  3  0
 19 24  4  0
 20 25  1  0
 21 23  1  0
 22 24  3  0
 24 25  3  0
M  END
$$$$

 Created by Python create_sdf_string function

 34 38  0  0  0  0  0  0  0  0999 V2000
   11.5412   -3.5146   17.7607 C   0  0  0  0  0  0  0  0  0  0  0  0
   14.5845   -1.8292   15.1071 O   0  0  0  0  0  0  0  0  0  0  0  0
   10.9117   -4.0624   15.6738 C   0  0  0  0  0  0  0  0  0  0  0  0
   12.5234   -4.4052   23.5632 C   0  0  0  0  0  0  0  0  0  0  0  0
    2.0798   -8.1677   15.7269 C   0  0  0  0  0  0  0  0  0  0  0  0
   11.3682   -3.8767   23.2197 C   0  0  0  0  0  0  0  0  0  0  0  0
    1.6948   -6.9888   15.2414 C   0  0  0  0  0  0  0  0  0  0  0  0
    7.9186   -6.7237   16.9524 C   0  0  0  0  0  0  0  0  0  0  0  0
   11.0049   -3.8889   21.9177 C   0  0  0  0  0  0  0  0  0  0  0  0
   12.7588   -5.0854   21.3262 C   0  0  0  0  0  0  0  0  0  0  0  0
    1.4725   -9.3187   15.3573 C   0  0  0  0  0  0  0  0  0  0  0  0
   11.1168   -4.6503   19.7358 C   0  0  0  0  0  0  0  0  0  0  0  0
   12.5783   -3.2089   14.0380 C   0  0  0  0  0  0  0  0  0  0  0  0
   13.2978   -5.0740   22.6485 C   0  0  0  0  0  0  0  0  0  0  0  0
   11.9539   -3.4899   15.2327 C   0  0  0  0  0  0  0  0  0  0  0  0
    6.5942   -8.4375   17.9180 C   0  0  0  0  0  0  0  0  0  0  0  0
    0.5161   -9.2721   14.4514 C   0  0  0  0  0  0  0  0  0  0  0  0
    5.7041   -7.9996   17.1129 C   0  0  0  0  0  0  0  0  0  0  0  0
   11.6256   -3.7278   19.1943 N   0  0  0  0  0  0  0  0  0  0  0  0
   10.0596   -5.4766   18.8826 C   0  0  0  0  0  0  0  0  0  0  0  0
    9.8787   -5.2421   17.5811 C   0  0  0  0  0  0  0  0  0  0  0  0
   10.7370   -4.2953   16.9939 C   0  0  0  0  0  0  0  0  0  0  0  0
    4.1849   -8.5198   17.1182 O   0  0  0  0  0  0  0  0  0  0  0  0
    0.5424   -6.9652   14.3889 C   0  0  0  0  0  0  0  0  0  0  0  0
    3.2526   -8.2334   16.5362 C   0  0  0  0  0  0  0  0  0  0  0  0
    6.8467   -6.5651   16.2564 C   0  0  0  0  0  0  0  0  0  0  0  0
    5.9451   -7.2219   16.2154 C   0  0  0  0  0  0  0  0  0  0  0  0
    9.0583   -5.8148   16.7468 O   0  0  0  0  0  0  0  0  0  0  0  0
   13.8093   -2.3141   14.8307 C   0  0  0  0  0  0  0  0  0  0  0  0
   11.5641   -4.6196   21.0175 C   0  0  0  0  0  0  0  0  0  0  0  0
    7.9804   -7.6802   17.7275 C   0  0  0  0  0  0  0  0  0  0  0  0
   12.7750   -2.7088   16.0858 C   0  0  0  0  0  0  0  0  0  0  0  0
   13.2083   -3.0297   12.9586 O   0  0  0  0  0  0  0  0  0  0  0  0
    0.0376   -8.0727   14.0402 C   0  0  0  0  0  0  0  0  0  0  0  0
  1 19  4  0
  1 22  4  0
  2 29  2  0
  3 15  1  0
  3 22  1  0
  4  6  4  0
  4 14  4  0
  5  7  4  0
  5 11  4  0
  5 25  1  0
  6  9  4  0
  7 24  4  0
  8 26  4  0
  8 28  1  0
  8 31  4  0
  9 30  4  0
 10 14  4  0
 10 30  4  0
 11 17  4  0
 12 19  4  0
 12 20  4  0
 12 30  1  0
 13 15  1  0
 13 29  1  0
 13 33  2  0
 15 32  1  0
 16 18  4  0
 16 31  4  0
 17 34  4  0
 18 23  1  0
 18 27  4  0
 20 21  4  0
 21 22  4  0
 21 28  1  0
 23 25  1  0
 24 34  4  0
 26 27  4  0
 29 32  1  0
M  END
$$$$

 Created by Python create_sdf_string function

 34 82  0  0  0  0  0  0  0  0999 V2000
   11.6314   -3.0437   17.5369 C   0  0  0  0  0  0  0  0  0  0  0  0
   14.3189   -2.2667   15.4838 O   0  0  0  0  0  0  0  0  0  0  0  0
   12.3952   -4.0286   23.5889 C   0  0  0  0  0  0  0  0  0  0  0  0
    2.9329   -8.1543   15.5104 N   0  0  0  0  0  0  0  0  0  0  0  0
   10.9800   -3.9884   23.6583 P   0  0  0  0  0  0  0  0  0  0  0  0
    1.4246   -7.1978   15.7308 O   0  0  0  0  0  0  0  0  0  0  0  0
    7.3685   -6.3965   16.3378 C   0  0  0  0  0  0  0  0  0  0  0  0
   12.5278   -4.7596   20.9993 C   0  0  0  0  0  0  0  0  0  0  0  0
    1.5115   -9.5518   15.8403 C   0  0  0  0  0  0  0  0  0  0  0  0
   10.9413   -4.7519   19.5119 F   0  0  0  0  0  0  0  0  0  0  0  0
   12.8586   -2.9511   14.2527 C   0  0  0  0  0  0  0  0  0  0  0  0
   12.5245   -5.0970   22.6291 C   0  0  0  0  0  0  0  0  0  0  0  0
    6.3855   -8.4632   17.9023 C   0  0  0  0  0  0  0  0  0  0  0  0
   -0.0200   -9.6986   14.5280 C   0  0  0  0  0  0  0  0  0  0  0  0
    5.9417   -8.1637   16.3285 C   0  0  0  0  0  0  0  0  0  0  0  0
   11.5311   -3.4080   19.2318 N   0  0  0  0  0  0  0  0  0  0  0  0
   10.7259   -5.9526   19.3402 C   0  0  0  0  0  0  0  0  0  0  0  0
    9.3866   -5.1308   17.7528 C   0  0  0  0  0  0  0  0  0  0  0  0
   10.6476   -3.8737   17.2668 C   0  0  0  0  0  0  0  0  0  0  0  0
    4.2396   -9.0296   17.5416 O   0  0  0  0  0  0  0  0  0  0  0  0
    0.6032   -6.5337   14.8241 C   0  0  0  0  0  0  0  0  0  0  0  0
    4.0421   -8.4881   16.2831 C   0  0  0  0  0  0  0  0  0  0  0  0
    6.8507   -6.5727   15.9590 C   0  0  0  0  0  0  0  0  0  0  0  0
    5.4375   -8.0599   15.7497 C   0  0  0  0  0  0  0  0  0  0  0  0
    9.1714   -5.9049   17.0475 O   0  0  0  0  0  0  0  0  0  0  0  0
    7.8452   -7.9615   17.7241 C   0  0  0  0  0  0  0  0  0  0  0  0
   12.5501   -3.2830   15.6978 C   0  0  0  0  0  0  0  0  0  0  0  0
   13.3181   -2.6840   13.1674 O   0  0  0  0  0  0  0  0  0  0  0  0
   -0.5551   -8.1342   14.5915 C   0  0  0  0  0  0  0  0  0  0  0  0
   10.2285   -3.8680   15.3402 He  0  0  0  0  0  0  0  0  0  0  0  0
   11.1427   -3.4782   22.2991 He  0  0  0  0  0  0  0  0  0  0  0  0
   12.6092   -3.3496   14.9627 He  0  0  0  0  0  0  0  0  0  0  0  0
   13.7159   -1.9533   14.4350 He  0  0  0  0  0  0  0  0  0  0  0  0
   11.9167   -4.7130   21.7903 He  0  0  0  0  0  0  0  0  0  0  0  0
  1  7  3  0
  1 13  2  0
  1 16  4  0
  1 19  4  0
  1 20  2  0
  1 24  1  0
  1 26  2  0
  2  3  3  0
  2 18  2  0
  2 19  1  0
  3  5  3  0
  3  7  1  0
  3 10  2  0
  3 11  1  0
  3 12  4  0
  3 17  1  0
  3 20  2  0
  4  6  4  0
  4  9  1  0
  4 19  3  0
  4 21  1  0
  4 22  3  0
  4 25  4  0
  5 19  2  0
  5 20  4  0
  6  7  1  0
  6  8  3  0
  6 14  1  0
  6 27  3  0
  7 17  1  0
  7 23  4  0
  7 25  3  0
  7 26  4  0
  7 27  4  0
  7 28  3  0
  8 11  4  0
  8 20  2  0
  8 26  1  0
  9 10  1  0
  9 12  3  0
  9 13  3  0
  9 14  4  0
 10 16  4  0
 10 17  4  0
 10 20  3  0
 10 26  4  0
 11 24  3  0
 11 28  3  0
 12 20  1  0
 13 15  4  0
 13 26  2  0
 13 27  3  0
 13 28  3  0
 14 17  1  0
 14 18  4  0
 14 19  4  0
 14 23  2  0
 14 29  4  0
 15 18  4  0
 15 19  4  0
 15 20  1  0
 15 25  4  0
 15 26  1  0
 15 27  4  0
 16 22  4  0
 16 25  2  0
 16 27  3  0
 17 18  4  0
 17 19  3  0
 17 23  1  0
 17 26  3  0
 17 27  1  0
 18 19  4  0
 18 22  4  0
 20 23  2  0
 20 24  2  0
 21 27  4  0
 21 28  2  0
 21 29  4  0
 23 24  4  0
 24 25  1  0
 24 29  4  0
M  END
$$$$

 Created by Python create_sdf_string function

 34 37  0  0  0  0  0  0  0  0999 V2000
   11.0877   -3.2199   17.9056 C   0  0  0  0  0  0  0  0  0  0  0  0
   14.5461   -1.8930   15.2115 O   0  0  0  0  0  0  0  0  0  0  0  0
   10.6496   -4.1194   15.8415 S   0  0  0  0  0  0  0  0  0  0  0  0
   12.2300   -4.4344   23.7585 C   0  0  0  0  0  0  0  0  0  0  0  0
    2.2496   -8.4101   15.7777 C   0  0  0  0  0  0  0  0  0  0  0  0
   11.0833   -3.8048   23.4272 C   0  0  0  0  0  0  0  0  0  0  0  0
    1.8038   -7.0993   15.4269 C   0  0  0  0  0  0  0  0  0  0  0  0
    7.9370   -6.6407   16.8273 C   0  0  0  0  0  0  0  0  0  0  0  0
   10.7394   -3.8436   22.0783 C   0  0  0  0  0  0  0  0  0  0  0  0
   12.5901   -5.0944   21.4599 C   0  0  0  0  0  0  0  0  0  0  0  0
    1.4346   -9.4884   15.5084 C   0  0  0  0  0  0  0  0  0  0  0  0
   11.0249   -4.4669   19.8575 C   0  0  0  0  0  0  0  0  0  0  0  0
   12.5210   -3.2245   13.4879 C   0  0  0  0  0  0  0  0  0  0  0  0
   13.0667   -5.0522   22.8312 C   0  0  0  0  0  0  0  0  0  0  0  0
   12.0442   -3.5293   15.1625 C   0  0  0  0  0  0  0  0  0  0  0  0
    6.6053   -8.3712   17.7896 C   0  0  0  0  0  0  0  0  0  0  0  0
    0.2620   -9.3859   14.8521 C   0  0  0  0  0  0  0  0  0  0  0  0
    5.6862   -8.1429   16.8750 C   0  0  0  0  0  0  0  0  0  0  0  0
   11.3244   -3.3423   19.1806 N   0  0  0  0  0  0  0  0  0  0  0  0
   10.1706   -5.3719   19.0124 C   0  0  0  0  0  0  0  0  0  0  0  0
    9.8438   -5.2350   17.6920 C   0  0  0  0  0  0  0  0  0  0  0  0
   10.5584   -4.1917   17.2054 C   0  0  0  0  0  0  0  0  0  0  0  0
    4.3555   -8.8558   16.9101 O   0  0  0  0  0  0  0  0  0  0  0  0
    0.5695   -7.0723   14.8278 C   0  0  0  0  0  0  0  0  0  0  0  0
    3.4739   -8.5225   16.3849 C   0  0  0  0  0  0  0  0  0  0  0  0
    7.0417   -6.5477   15.8026 C   0  0  0  0  0  0  0  0  0  0  0  0
    5.9413   -7.2156   15.8647 C   0  0  0  0  0  0  0  0  0  0  0  0
    9.0856   -5.7755   16.8760 O   0  0  0  0  0  0  0  0  0  0  0  0
   13.8345   -2.1960   14.4532 C   0  0  0  0  0  0  0  0  0  0  0  0
   11.4285   -4.5488   21.1643 C   0  0  0  0  0  0  0  0  0  0  0  0
    7.7876   -7.5551   17.8002 C   0  0  0  0  0  0  0  0  0  0  0  0
   12.5459   -3.0683   15.3141 C   0  0  0  0  0  0  0  0  0  0  0  0
   13.5183   -2.5400   13.2120 O   0  0  0  0  0  0  0  0  0  0  0  0
   -0.1837   -8.0871   14.5521 C   0  0  0  0  0  0  0  0  0  0  0  0
  1 19  4  0
  1 22  4  0
  2 29  2  0
  3 15  1  0
  3 22  1  0
  4  6  4  0
  4 14  4  0
  5  7  4  0
  5 11  4  0
  5 25  1  0
  6  9  4  0
  7 24  4  0
  8 26  4  0
  8 28  1  0
  8 31  4  0
  9 30  4  0
 10 14  4  0
 10 30  4  0
 11 17  4  0
 12 19  4  0
 12 20  4  0
 12 30  1  0
 13 33  1  0
 15 32  1  0
 16 18  4  0
 16 31  4  0
 17 34  4  0
 18 23  1  0
 18 27  4  0
 20 21  4  0
 21 22  4  0
 21 28  1  0
 23 25  1  0
 24 34  4  0
 26 27  4  0
 29 32  1  0
 29 33  1  0
M  END
$$$$

 Created by Python create_sdf_string function

 34100  0  0  0  0  0  0  0  0999 V2000
   11.0508   -3.1001   17.1435 C   0  0  0  0  0  0  0  0  0  0  0  0
   14.3488   -2.2670   14.9550 O   0  0  0  0  0  0  0  0  0  0  0  0
   10.3691   -3.9368   15.5255 S   0  0  0  0  0  0  0  0  0  0  0  0
   12.7648   -4.6341   23.5892 I   0  0  0  0  0  0  0  0  0  0  0  0
    2.2348   -8.7615   15.9330 C   0  0  0  0  0  0  0  0  0  0  0  0
   10.9974   -4.3527   24.1772 N   0  0  0  0  0  0  0  0  0  0  0  0
    1.8178   -7.1364   15.7788 C   0  0  0  0  0  0  0  0  0  0  0  0
    7.3446   -6.0635   16.8134 P   0  0  0  0  0  0  0  0  0  0  0  0
   10.3937   -4.0586   22.2026 C   0  0  0  0  0  0  0  0  0  0  0  0
   12.1873   -4.6487   21.5155 C   0  0  0  0  0  0  0  0  0  0  0  0
    1.0362   -9.9288   14.9445 Cl  0  0  0  0  0  0  0  0  0  0  0  0
   12.6600   -2.9924   13.1963 C   0  0  0  0  0  0  0  0  0  0  0  0
   13.0751   -5.3213   22.9749 C   0  0  0  0  0  0  0  0  0  0  0  0
   12.3269   -3.5922   14.9063 P   0  0  0  0  0  0  0  0  0  0  0  0
    6.3216   -8.5483   17.4575 C   0  0  0  0  0  0  0  0  0  0  0  0
    0.0503   -9.4930   14.7943 C   0  0  0  0  0  0  0  0  0  0  0  0
    5.6793   -8.1414   16.8033 Cl  0  0  0  0  0  0  0  0  0  0  0  0
   10.0759   -5.3066   18.6388 C   0  0  0  0  0  0  0  0  0  0  0  0
    9.4371   -4.8660   18.5828 C   0  0  0  0  0  0  0  0  0  0  0  0
   10.0154   -3.7767   17.5312 C   0  0  0  0  0  0  0  0  0  0  0  0
    4.5754   -8.6582   17.9596 Cl  0  0  0  0  0  0  0  0  0  0  0  0
    0.6875   -7.4534   14.4788 Br  0  0  0  0  0  0  0  0  0  0  0  0
    3.9333   -8.7428   16.1595 C   0  0  0  0  0  0  0  0  0  0  0  0
    6.7017   -6.8066   15.3762 C   0  0  0  0  0  0  0  0  0  0  0  0
    6.1060   -6.4999   16.3298 C   0  0  0  0  0  0  0  0  0  0  0  0
    9.4119   -5.5551   16.4173 F   0  0  0  0  0  0  0  0  0  0  0  0
   14.2415   -2.5122   14.4794 C   0  0  0  0  0  0  0  0  0  0  0  0
   10.9174   -4.3902   20.8504 C   0  0  0  0  0  0  0  0  0  0  0  0
    8.1484   -7.8762   17.5571 C   0  0  0  0  0  0  0  0  0  0  0  0
   12.2578   -3.2549   14.8219 O   0  0  0  0  0  0  0  0  0  0  0  0
   13.4587   -2.9366   13.0967 O   0  0  0  0  0  0  0  0  0  0  0  0
   -0.4540   -8.8210   14.9485 C   0  0  0  0  0  0  0  0  0  0  0  0
   11.4490   -4.6559   19.5726 He  0  0  0  0  0  0  0  0  0  0  0  0
   10.6896   -3.0654   18.9699 He  0  0  0  0  0  0  0  0  0  0  0  0
  1 20  3  0
  1 25  1  0
  1 27  2  0
  2  4  3  0
  2 18  3  0
  2 21  1  0
  2 27  3  0
  3 17  3  0
  3 19  3  0
  3 20  1  0
  3 25  1  0
  4 10  4  0
  4 11  4  0
  4 12  1  0
  4 13  3  0
  4 16  1  0
  4 27  4  0
  4 29  3  0
  5  9  2  0
  5 12  1  0
  5 19  1  0
  5 20  4  0
  5 28  4  0
  5 31  4  0
  6  9  4  0
  6 10  1  0
  6 15  1  0
  6 23  3  0
  6 24  3  0
  6 27  3  0
  7  8  3  0
  7 10  2  0
  7 12  1  0
  7 16  2  0
  7 22  4  0
  7 30  4  0
  8  9  1  0
  8 18  3  0
  8 21  2  0
  8 24  4  0
  8 26  1  0
  8 27  4  0
  8 29  4  0
  9 14  2  0
  9 15  2  0
  9 16  3  0
  9 19  3  0
  9 30  1  0
 10 13  4  0
 10 22  1  0
 10 23  3  0
 10 26  2  0
 10 28  4  0
 11 16  4  0
 11 30  1  0
 12 15  1  0
 12 16  2  0
 12 17  3  0
 12 19  3  0
 12 22  4  0
 12 25  3  0
 12 27  2  0
 12 31  1  0
 12 32  2  0
 13 20  4  0
 13 32  3  0
 14 20  1  0
 14 22  4  0
 14 23  2  0
 15 18  2  0
 15 22  2  0
 15 23  4  0
 15 27  2  0
 15 29  4  0
 16 17  4  0
 16 25  1  0
 16 26  2  0
 16 31  1  0
 17 21  1  0
 17 24  4  0
 17 25  4  0
 17 27  1  0
 17 31  4  0
 18 19  4  0
 18 28  3  0
 19 20  4  0
 19 26  1  0
 19 27  4  0
 20 27  4  0
 20 29  1  0
 21 24  1  0
 21 31  1  0
 22 30  3  0
 23 29  1  0
 24 26  4  0
 24 28  2  0
 24 30  2  0
 25 28  1  0
 27 30  1  0
 27 31  3  0
M  END
$$$$

 Created by Python create_sdf_string function

 34 37  0  0  0  0  0  0  0  0999 V2000
   11.0862   -3.0808   17.8169 C   0  0  0  0  0  0  0  0  0  0  0  0
   14.4871   -2.1127   14.9145 O   0  0  0  0  0  0  0  0  0  0  0  0
   10.5786   -3.9141   15.6929 O   0  0  0  0  0  0  0  0  0  0  0  0
   12.1646   -4.7216   23.7082 C   0  0  0  0  0  0  0  0  0  0  0  0
    2.1786   -8.6884   15.7332 C   0  0  0  0  0  0  0  0  0  0  0  0
   10.9677   -4.1245   23.4798 N   0  0  0  0  0  0  0  0  0  0  0  0
    1.6843   -7.3865   15.4483 C   0  0  0  0  0  0  0  0  0  0  0  0
    7.9618   -6.5180   16.7653 C   0  0  0  0  0  0  0  0  0  0  0  0
   10.6152   -3.9446   22.1617 C   0  0  0  0  0  0  0  0  0  0  0  0
   12.4866   -4.9763   21.4247 C   0  0  0  0  0  0  0  0  0  0  0  0
    1.3880   -9.6675   15.4193 C   0  0  0  0  0  0  0  0  0  0  0  0
   10.8853   -4.3132   19.8419 C   0  0  0  0  0  0  0  0  0  0  0  0
   12.7079   -3.0022   12.6608 C   0  0  0  0  0  0  0  0  0  0  0  0
   13.0530   -5.1313   22.7374 C   0  0  0  0  0  0  0  0  0  0  0  0
   11.8522   -3.5256   14.9857 C   0  0  0  0  0  0  0  0  0  0  0  0
    6.7441   -8.2398   17.6783 C   0  0  0  0  0  0  0  0  0  0  0  0
    0.2108   -9.6093   14.8623 C   0  0  0  0  0  0  0  0  0  0  0  0
    5.7304   -7.9962   16.8888 C   0  0  0  0  0  0  0  0  0  0  0  0
   11.2343   -3.2138   19.1446 N   0  0  0  0  0  0  0  0  0  0  0  0
   10.0664   -5.1795   18.9866 C   0  0  0  0  0  0  0  0  0  0  0  0
    9.7789   -5.0860   17.6518 C   0  0  0  0  0  0  0  0  0  0  0  0
   10.5289   -4.0250   17.1077 C   0  0  0  0  0  0  0  0  0  0  0  0
    4.4334   -8.6507   17.0955 O   0  0  0  0  0  0  0  0  0  0  0  0
    0.4368   -7.3249   14.9002 C   0  0  0  0  0  0  0  0  0  0  0  0
    3.5060   -8.8984   16.3946 C   0  0  0  0  0  0  0  0  0  0  0  0
    6.9045   -6.3577   15.7626 C   0  0  0  0  0  0  0  0  0  0  0  0
    5.8978   -7.0830   15.9008 C   0  0  0  0  0  0  0  0  0  0  0  0
    9.0488   -5.6237   16.8589 O   0  0  0  0  0  0  0  0  0  0  0  0
   13.7274   -2.6561   14.3018 C   0  0  0  0  0  0  0  0  0  0  0  0
   11.2610   -4.4631   21.0491 C   0  0  0  0  0  0  0  0  0  0  0  0
    7.8445   -7.5908   17.6385 C   0  0  0  0  0  0  0  0  0  0  0  0
   12.5401   -3.2640   14.9331 C   0  0  0  0  0  0  0  0  0  0  0  0
   13.6530   -2.9110   12.9324 O   0  0  0  0  0  0  0  0  0  0  0  0
   -0.2462   -8.3184   14.6439 C   0  0  0  0  0  0  0  0  0  0  0  0
  1 19  4  0
  1 22  4  0
  2 29  2  0
  3 15  1  0
  3 22  1  0
  4  6  4  0
  4 14  4  0
  5  7  4  0
  5 11  4  0
  5 25  1  0
  6  9  4  0
  7 24  4  0
  8 26  4  0
  8 28  1  0
  8 31  4  0
  9 30  4  0
 10 14  4  0
 10 30  4  0
 11 17  4  0
 12 19  4  0
 12 20  4  0
 12 30  1  0
 13 33  1  0
 15 32  1  0
 16 18  4  0
 16 31  4  0
 17 34  4  0
 18 23  1  0
 18 27  4  0
 20 21  4  0
 21 22  4  0
 21 28  1  0
 23 25  1  0
 24 34  4  0
 26 27  4  0
 29 32  1  0
 29 33  1  0
M  END
$$$$

 Created by Python create_sdf_string function

 34 71  0  0  0  0  0  0  0  0999 V2000
   14.5924   -2.3754   14.3944 O   0  0  0  0  0  0  0  0  0  0  0  0
   10.1890   -2.9736   15.6924 O   0  0  0  0  0  0  0  0  0  0  0  0
   12.4005   -4.5978   23.0656 C   0  0  0  0  0  0  0  0  0  0  0  0
    2.0254   -8.6798   15.6498 C   0  0  0  0  0  0  0  0  0  0  0  0
   11.1158   -3.2319   22.7803 N   0  0  0  0  0  0  0  0  0  0  0  0
    0.9475   -7.0070   15.1163 C   0  0  0  0  0  0  0  0  0  0  0  0
    7.5381   -6.3991   16.5126 C   0  0  0  0  0  0  0  0  0  0  0  0
   10.4329   -4.0865   23.0079 C   0  0  0  0  0  0  0  0  0  0  0  0
   12.4620   -4.8611   21.1207 C   0  0  0  0  0  0  0  0  0  0  0  0
    1.2150   -9.7839   15.1803 C   0  0  0  0  0  0  0  0  0  0  0  0
   10.5919   -4.2838   20.0766 C   0  0  0  0  0  0  0  0  0  0  0  0
   12.3425   -3.3711   13.0726 C   0  0  0  0  0  0  0  0  0  0  0  0
   13.3411   -5.4357   22.7921 C   0  0  0  0  0  0  0  0  0  0  0  0
   11.9934   -3.0413   14.6991 C   0  0  0  0  0  0  0  0  0  0  0  0
    6.3842   -9.3120   17.6684 F   0  0  0  0  0  0  0  0  0  0  0  0
    0.3240   -9.6326   14.9298 F   0  0  0  0  0  0  0  0  0  0  0  0
    6.4261   -7.9830   16.4892 C   0  0  0  0  0  0  0  0  0  0  0  0
   11.4860   -2.6613   19.1108 N   0  0  0  0  0  0  0  0  0  0  0  0
    9.5056   -4.9565   19.4052 C   0  0  0  0  0  0  0  0  0  0  0  0
    9.9061   -4.0194   17.0467 Cl  0  0  0  0  0  0  0  0  0  0  0  0
    5.1409   -8.9703   17.4531 O   0  0  0  0  0  0  0  0  0  0  0  0
    6.5790   -6.1869   16.3422 C   0  0  0  0  0  0  0  0  0  0  0  0
   13.4223   -2.5718   14.3622 C   0  0  0  0  0  0  0  0  0  0  0  0
   11.5121   -4.6521   21.6298 C   0  0  0  0  0  0  0  0  0  0  0  0
    7.7798   -7.6787   17.4816 C   0  0  0  0  0  0  0  0  0  0  0  0
   12.3234   -2.9249   15.1513 C   0  0  0  0  0  0  0  0  0  0  0  0
   14.0093   -2.7030   13.3303 F   0  0  0  0  0  0  0  0  0  0  0  0
    0.6272   -8.0275   15.1606 C   0  0  0  0  0  0  0  0  0  0  0  0
   11.0707   -3.6952   18.1201 He  0  0  0  0  0  0  0  0  0  0  0  0
    9.9961   -5.6144   17.7665 He  0  0  0  0  0  0  0  0  0  0  0  0
    0.7565   -7.4919   15.1613 He  0  0  0  0  0  0  0  0  0  0  0  0
    3.7112   -9.5843   16.7929 He  0  0  0  0  0  0  0  0  0  0  0  0
    5.7324   -6.7006   16.4690 He  0  0  0  0  0  0  0  0  0  0  0  0
    8.9911   -5.5281   16.6676 He  0  0  0  0  0  0  0  0  0  0  0  0
  1 11  4  0
  1 23  2  0
  2  6  2  0
  2  7  2  0
  2 14  1  0
  2 20  1  0
  2 21  4  0
  2 24  1  0
  2 26  1  0
  3  5  4  0
  3  6  2  0
  3  7  2  0
  3 28  4  0
  4  6  4  0
  4  9  2  0
  4 10  4  0
  4 11  2  0
  4 27  4  0
  5  8  4  0
  5  9  1  0
  5 16  3  0
  5 20  3  0
  6 17  3  0
  7 19  1  0
  7 22  3  0
  7 25  4  0
  8 21  3  0
  8 24  4  0
  9 11  2  0
  9 13  4  0
  9 14  4  0
  9 18  4  0
  9 24  4  0
 10 16  4  0
 10 19  3  0
 10 22  4  0
 10 24  1  0
 10 28  3  0
 11 18  4  0
 11 19  3  0
 11 20  4  0
 11 24  1  0
 12 19  4  0
 12 26  2  0
 12 27  1  0
 13 18  4  0
 13 20  4  0
 13 28  4  0
 14 15  1  0
 14 19  3  0
 14 26  1  0
 15 17  1  0
 15 26  2  0
 16 17  3  0
 16 18  4  0
 16 26  1  0
 17 21  1  0
 17 22  3  0
 18 19  1  0
 18 20  3  0
 18 26  1  0
 18 27  2  0
 19 25  4  0
 19 26  4  0
 19 28  2  0
 20 21  4  0
 23 26  1  0
 23 27  1  0
 25 26  4  0
 26 28  1  0
 27 28  2  0
M  END
$$$$

 Created by Python create_sdf_string function

 34 37  0  0  0  0  0  0  0  0999 V2000
   10.9496   -3.2016   17.8425 C   0  0  0  0  0  0  0  0  0  0  0  0
   14.7356   -2.1072   14.8183 O   0  0  0  0  0  0  0  0  0  0  0  0
   10.3670   -3.8610   15.8392 O   0  0  0  0  0  0  0  0  0  0  0  0
   12.5160   -4.4011   23.6196 C   0  0  0  0  0  0  0  0  0  0  0  0
    2.2562   -8.7546   15.8704 C   0  0  0  0  0  0  0  0  0  0  0  0
   11.2798   -3.8626   23.4901 N   0  0  0  0  0  0  0  0  0  0  0  0
    1.8436   -7.3537   15.6308 C   0  0  0  0  0  0  0  0  0  0  0  0
    7.8589   -6.5759   16.8505 C   0  0  0  0  0  0  0  0  0  0  0  0
   10.7623   -3.8197   22.2337 C   0  0  0  0  0  0  0  0  0  0  0  0
   12.4394   -5.0683   21.3063 C   0  0  0  0  0  0  0  0  0  0  0  0
    1.3989   -9.6904   15.4953 C   0  0  0  0  0  0  0  0  0  0  0  0
   10.8381   -4.3006   19.8906 C   0  0  0  0  0  0  0  0  0  0  0  0
   12.5228   -3.2071   12.6663 C   0  0  0  0  0  0  0  0  0  0  0  0
   13.1441   -5.0938   22.5423 C   0  0  0  0  0  0  0  0  0  0  0  0
   11.6276   -3.5921   15.0159 C   0  0  0  0  0  0  0  0  0  0  0  0
    6.7403   -8.6333   17.5659 C   0  0  0  0  0  0  0  0  0  0  0  0
    0.2733   -9.4788   14.9313 C   0  0  0  0  0  0  0  0  0  0  0  0
    5.7074   -8.2392   16.8924 C   0  0  0  0  0  0  0  0  0  0  0  0
   11.1148   -3.2698   19.1316 C   0  0  0  0  0  0  0  0  0  0  0  0
    9.9704   -5.2648   19.2165 C   0  0  0  0  0  0  0  0  0  0  0  0
    9.5793   -5.2401   17.7945 C   0  0  0  0  0  0  0  0  0  0  0  0
   10.3771   -4.0836   17.2191 C   0  0  0  0  0  0  0  0  0  0  0  0
    4.4706   -8.9735   17.0207 O   0  0  0  0  0  0  0  0  0  0  0  0
    0.7531   -7.2566   15.0882 C   0  0  0  0  0  0  0  0  0  0  0  0
    3.5699   -9.0951   16.5549 C   0  0  0  0  0  0  0  0  0  0  0  0
    6.7502   -6.4139   16.0605 C   0  0  0  0  0  0  0  0  0  0  0  0
    5.7502   -7.1620   16.0854 C   0  0  0  0  0  0  0  0  0  0  0  0
    8.9503   -5.6799   16.8472 O   0  0  0  0  0  0  0  0  0  0  0  0
   13.7175   -2.6536   14.4122 C   0  0  0  0  0  0  0  0  0  0  0  0
   11.3163   -4.4563   21.1299 C   0  0  0  0  0  0  0  0  0  0  0  0
    7.9476   -7.7660   17.6630 C   0  0  0  0  0  0  0  0  0  0  0  0
   12.5097   -3.0814   15.1448 C   0  0  0  0  0  0  0  0  0  0  0  0
   13.5460   -2.9794   13.1106 N   0  0  0  0  0  0  0  0  0  0  0  0
   -0.0712   -8.1489   14.7876 C   0  0  0  0  0  0  0  0  0  0  0  0
  1 19  4  0
  1 22  4  0
  2 29  2  0
  3 15  1  0
  3 22  1  0
  4  6  4  0
  4 14  4  0
  5  7  4  0
  5 11  4  0
  5 25  1  0
  6  9  4  0
  7 24  4  0
  8 26  4  0
  8 28  1  0
  8 31  4  0
  9 30  4  0
 10 14  4  0
 10 30  4  0
 11 17  4  0
 12 19  4  0
 12 20  4  0
 12 30  1  0
 13 33  1  0
 15 32  1  0
 16 18  4  0
 16 31  4  0
 17 34  4  0
 18 23  1  0
 18 27  4  0
 20 21  4  0
 21 22  4  0
 21 28  1  0
 23 25  1  0
 24 34  4  0
 26 27  4  0
 29 32  1  0
 29 33  1  0
M  END
$$$$

 Created by Python create_sdf_string function

 34 58  0  0  0  0  0  0  0  0999 V2000
   11.6992   -3.4057   18.0211 C   0  0  0  0  0  0  0  0  0  0  0  0
   10.7249   -3.6156   15.9530 O   0  0  0  0  0  0  0  0  0  0  0  0
   12.6613   -4.5314   24.1868 C   0  0  0  0  0  0  0  0  0  0  0  0
    2.7831   -8.9423   15.7027 C   0  0  0  0  0  0  0  0  0  0  0  0
   11.5003   -3.4778   23.1389 O   0  0  0  0  0  0  0  0  0  0  0  0
    2.0965   -7.6177   15.5343 C   0  0  0  0  0  0  0  0  0  0  0  0
   10.7298   -3.1848   21.7874 C   0  0  0  0  0  0  0  0  0  0  0  0
   12.0216   -5.0916   22.0543 C   0  0  0  0  0  0  0  0  0  0  0  0
    1.6569  -10.0508   15.8103 C   0  0  0  0  0  0  0  0  0  0  0  0
    9.8621   -4.0637   20.1810 C   0  0  0  0  0  0  0  0  0  0  0  0
   12.7645   -3.0253   12.7368 C   0  0  0  0  0  0  0  0  0  0  0  0
   12.3237   -4.3126   23.4383 Cl  0  0  0  0  0  0  0  0  0  0  0  0
    7.0341   -9.1608   17.8138 C   0  0  0  0  0  0  0  0  0  0  0  0
    0.1652  -10.3094   14.5463 C   0  0  0  0  0  0  0  0  0  0  0  0
    5.5819   -8.0014   16.6752 P   0  0  0  0  0  0  0  0  0  0  0  0
   11.6718   -3.1418   18.7283 C   0  0  0  0  0  0  0  0  0  0  0  0
    9.7852   -5.7568   19.1371 C   0  0  0  0  0  0  0  0  0  0  0  0
    9.6074   -4.5515   17.2287 C   0  0  0  0  0  0  0  0  0  0  0  0
   10.4753   -3.9489   17.4551 C   0  0  0  0  0  0  0  0  0  0  0  0
    4.1198   -9.1730   16.8540 O   0  0  0  0  0  0  0  0  0  0  0  0
    0.9513   -7.1387   15.4320 C   0  0  0  0  0  0  0  0  0  0  0  0
    5.8232   -7.1759   15.8345 C   0  0  0  0  0  0  0  0  0  0  0  0
   11.1566   -4.0306   20.6410 C   0  0  0  0  0  0  0  0  0  0  0  0
   12.5379   -3.4657   15.5716 C   0  0  0  0  0  0  0  0  0  0  0  0
   13.5287   -3.5109   13.3302 N   0  0  0  0  0  0  0  0  0  0  0  0
   -0.0525   -8.7148   14.7514 C   0  0  0  0  0  0  0  0  0  0  0  0
   14.1976   -2.3149   14.3660 He  0  0  0  0  0  0  0  0  0  0  0  0
    7.9147   -5.8466   17.0897 He  0  0  0  0  0  0  0  0  0  0  0  0
   12.0174   -3.8880   14.8101 He  0  0  0  0  0  0  0  0  0  0  0  0
    3.4008   -9.4132   16.7306 He  0  0  0  0  0  0  0  0  0  0  0  0
    6.7706   -6.7533   15.6167 He  0  0  0  0  0  0  0  0  0  0  0  0
    9.5044   -5.4495   17.3172 He  0  0  0  0  0  0  0  0  0  0  0  0
   13.6350   -2.3330   14.5458 He  0  0  0  0  0  0  0  0  0  0  0  0
    8.5620   -7.3657   17.7475 He  0  0  0  0  0  0  0  0  0  0  0  0
  1  8  3  0
  1 13  4  0
  1 16  4  0
  1 18  3  0
  1 19  4  0
  1 26  1  0
  2 12  3  0
  2 13  1  0
  2 16  1  0
  2 17  4  0
  2 19  1  0
  2 20  4  0
  3  5  4  0
  3  9  2  0
  3 19  2  0
  3 22  3  0
  4  6  4  0
  4  9  4  0
  4 21  3  0
  4 23  3  0
  5  7  4  0
  5 10  2  0
  5 11  2  0
  5 14  3  0
  5 17  2  0
  5 21  1  0
  5 26  2  0
  6 16  4  0
  7 11  2  0
  7 14  3  0
  8 12  4  0
  8 23  4  0
  9 17  1  0
 10 11  2  0
 10 13  1  0
 10 16  4  0
 10 17  4  0
 10 23  1  0
 10 26  2  0
 11 17  3  0
 11 24  3  0
 11 25  1  0
 12 23  3  0
 13 15  4  0
 14 22  3  0
 14 26  4  0
 15 20  1  0
 16 22  1  0
 17 18  4  0
 17 19  2  0
 17 23  2  0
 18 23  3  0
 18 24  1  0
 19 24  4  0
 20 21  3  0
 20 25  3  0
 21 26  4  0
 23 24  3  0
M  END
$$$$

 Created by Python create_sdf_string function

 34 37  0  0  0  0  0  0  0  0999 V2000
   11.1473   -2.9739   17.9516 C   0  0  0  0  0  0  0  0  0  0  0  0
   14.4513   -1.8357   14.4808 O   0  0  0  0  0  0  0  0  0  0  0  0
   10.6076   -3.8748   15.8390 O   0  0  0  0  0  0  0  0  0  0  0  0
   12.0858   -4.2352   23.9209 C   0  0  0  0  0  0  0  0  0  0  0  0
    2.3830   -8.9595   15.9695 C   0  0  0  0  0  0  0  0  0  0  0  0
   11.1896   -3.2574   23.6128 C   0  0  0  0  0  0  0  0  0  0  0  0
    1.9965   -7.6357   15.6734 C   0  0  0  0  0  0  0  0  0  0  0  0
    7.9473   -6.5253   16.8590 C   0  0  0  0  0  0  0  0  0  0  0  0
   10.7021   -3.2541   22.3387 C   0  0  0  0  0  0  0  0  0  0  0  0
   11.9969   -5.0512   21.7983 C   0  0  0  0  0  0  0  0  0  0  0  0
    1.4761   -9.9128   15.5814 C   0  0  0  0  0  0  0  0  0  0  0  0
   10.7525   -4.2023   20.0512 C   0  0  0  0  0  0  0  0  0  0  0  0
   12.7007   -3.0485   12.1934 C   0  0  0  0  0  0  0  0  0  0  0  0
   12.4821   -5.0653   23.0508 C   0  0  0  0  0  0  0  0  0  0  0  0
   11.7065   -3.7876   15.0271 C   0  0  0  0  0  0  0  0  0  0  0  0
    6.7791   -8.4035   17.6625 C   0  0  0  0  0  0  0  0  0  0  0  0
    0.3900   -9.7035   14.9335 C   0  0  0  0  0  0  0  0  0  0  0  0
    5.7930   -8.1658   16.8206 C   0  0  0  0  0  0  0  0  0  0  0  0
   11.1931   -3.1745   19.2966 C   0  0  0  0  0  0  0  0  0  0  0  0
    9.9831   -5.0977   19.1222 C   0  0  0  0  0  0  0  0  0  0  0  0
    9.8045   -4.9422   17.7929 C   0  0  0  0  0  0  0  0  0  0  0  0
   10.6102   -3.9650   17.2563 C   0  0  0  0  0  0  0  0  0  0  0  0
    4.4763   -8.9176   17.0153 O   0  0  0  0  0  0  0  0  0  0  0  0
    0.9364   -7.3992   15.0226 C   0  0  0  0  0  0  0  0  0  0  0  0
    3.7129   -9.3090   16.7110 C   0  0  0  0  0  0  0  0  0  0  0  0
    6.9668   -6.3933   15.8325 C   0  0  0  0  0  0  0  0  0  0  0  0
    5.9287   -7.1644   15.8248 C   0  0  0  0  0  0  0  0  0  0  0  0
    8.9892   -5.5293   16.9825 O   0  0  0  0  0  0  0  0  0  0  0  0
   13.7135   -2.7446   14.3665 C   0  0  0  0  0  0  0  0  0  0  0  0
   11.1382   -4.2545   21.2978 C   0  0  0  0  0  0  0  0  0  0  0  0
    7.8709   -7.6102   17.6893 C   0  0  0  0  0  0  0  0  0  0  0  0
   12.8380   -3.3308   15.3972 C   0  0  0  0  0  0  0  0  0  0  0  0
   13.4893   -3.4750   13.1932 N   0  0  0  0  0  0  0  0  0  0  0  0
    0.1066   -8.3805   14.6870 C   0  0  0  0  0  0  0  0  0  0  0  0
  1 19  4  0
  1 22  4  0
  2 29  2  0
  3 15  1  0
  3 22  1  0
  4  6  4  0
  4 14  4  0
  5  7  4  0
  5 11  4  0
  5 25  1  0
  6  9  4  0
  7 24  4  0
  8 26  4  0
  8 28  1  0
  8 31  4  0
  9 30  4  0
 10 14  4  0
 10 30  4  0
 11 17  4  0
 12 19  4  0
 12 20  4  0
 12 30  1  0
 13 33  1  0
 15 32  1  0
 16 18  4  0
 16 31  4  0
 17 34  4  0
 18 23  1  0
 18 27  4  0
 20 21  4  0
 21 22  4  0
 21 28  1  0
 23 25  1  0
 24 34  4  0
 26 27  4  0
 29 32  1  0
 29 33  1  0
M  END
$$$$

 Created by Python create_sdf_string function

 34 78  0  0  0  0  0  0  0  0999 V2000
   10.9212   -3.1794   18.5736 C   0  0  0  0  0  0  0  0  0  0  0  0
   14.5751   -2.4730   14.3156 O   0  0  0  0  0  0  0  0  0  0  0  0
   10.1298   -3.9322   16.2486 N   0  0  0  0  0  0  0  0  0  0  0  0
   12.3998   -4.2478   23.7172 C   0  0  0  0  0  0  0  0  0  0  0  0
    2.8119   -9.2131   15.8539 C   0  0  0  0  0  0  0  0  0  0  0  0
    2.1618   -7.7526   15.5160 C   0  0  0  0  0  0  0  0  0  0  0  0
    7.8272   -6.2926   16.5228 C   0  0  0  0  0  0  0  0  0  0  0  0
   10.2876   -3.2794   22.0331 C   0  0  0  0  0  0  0  0  0  0  0  0
   11.9376   -4.9614   21.9176 C   0  0  0  0  0  0  0  0  0  0  0  0
    1.0129   -8.9997   15.9035 C   0  0  0  0  0  0  0  0  0  0  0  0
   10.1034   -4.0816   19.6529 C   0  0  0  0  0  0  0  0  0  0  0  0
   11.9636   -3.0014   12.2916 C   0  0  0  0  0  0  0  0  0  0  0  0
   12.0459   -5.1593   23.3975 C   0  0  0  0  0  0  0  0  0  0  0  0
    6.4938   -8.5115   18.3582 C   0  0  0  0  0  0  0  0  0  0  0  0
    0.1582   -9.1301   15.3472 C   0  0  0  0  0  0  0  0  0  0  0  0
    6.2416   -7.9589   16.6716 N   0  0  0  0  0  0  0  0  0  0  0  0
   11.2648   -3.3879   19.5531 C   0  0  0  0  0  0  0  0  0  0  0  0
    9.7292   -5.0891   19.6312 C   0  0  0  0  0  0  0  0  0  0  0  0
    9.6360   -5.1794   17.7662 C   0  0  0  0  0  0  0  0  0  0  0  0
   10.5463   -3.9377   16.8296 C   0  0  0  0  0  0  0  0  0  0  0  0
    3.7552   -9.4552   16.7793 O   0  0  0  0  0  0  0  0  0  0  0  0
    1.1367   -6.9234   14.6131 C   0  0  0  0  0  0  0  0  0  0  0  0
    3.7729   -8.9614   16.6945 Se  0  0  0  0  0  0  0  0  0  0  0  0
    6.8347   -6.5148   15.7863 C   0  0  0  0  0  0  0  0  0  0  0  0
    8.5728   -5.3293   16.6457 O   0  0  0  0  0  0  0  0  0  0  0  0
   13.6095   -3.0485   14.2624 C   0  0  0  0  0  0  0  0  0  0  0  0
   11.9065   -3.9202   21.2123 C   0  0  0  0  0  0  0  0  0  0  0  0
    8.0918   -7.6102   17.9529 O   0  0  0  0  0  0  0  0  0  0  0  0
   13.6667   -4.2318   12.8986 N   0  0  0  0  0  0  0  0  0  0  0  0
   -0.0594   -9.3170   15.1930 C   0  0  0  0  0  0  0  0  0  0  0  0
   11.2273   -4.0063   24.3194 He  0  0  0  0  0  0  0  0  0  0  0  0
   11.8920   -3.5141   15.6623 He  0  0  0  0  0  0  0  0  0  0  0  0
    5.6460   -7.7793   15.4792 He  0  0  0  0  0  0  0  0  0  0  0  0
   13.0593   -3.1175   15.6866 He  0  0  0  0  0  0  0  0  0  0  0  0
  1 13  2  0
  1 17  4  0
  1 18  4  0
  1 20  4  0
  2 21  4  0
  2 26  2  0
  3 12  2  0
  3 20  2  0
  3 28  1  0
  3 30  3  0
  4  5  4  0
  4 13  4  0
  4 18  1  0
  4 25  4  0
  4 26  3  0
  5  6  4  0
  5 10  4  0
  5 11  2  0
  5 16  3  0
  5 17  3  0
  5 19  1  0
  5 23  1  0
  5 26  4  0
  6 28  4  0
  7 20  1  0
  7 24  4  0
  8 11  3  0
  8 22  1  0
  8 24  2  0
  8 27  3  0
  9 13  4  0
  9 27  4  0
  9 29  1  0
 10 26  3  0
 11 17  4  0
 11 18  4  0
 12 21  2  0
 13 18  3  0
 13 22  4  0
 13 24  2  0
 13 27  4  0
 13 28  1  0
 13 29  3  0
 14 16  4  0
 14 17  2  0
 14 27  3  0
 14 28  4  0
 15 16  2  0
 15 18  4  0
 15 20  3  0
 15 25  1  0
 15 26  2  0
 15 28  1  0
 15 30  4  0
 16 17  1  0
 16 21  4  0
 16 22  3  0
 17 23  1  0
 17 26  2  0
 17 27  1  0
 17 30  1  0
 18 19  4  0
 18 20  1  0
 18 24  2  0
 18 28  1  0
 19 20  4  0
 19 25  1  0
 20 25  1  0
 21 22  4  0
 21 28  1  0
 22 24  4  0
 22 29  1  0
 23 25  4  0
 23 29  1  0
 25 27  3  0
 25 30  2  0
 26 29  1  0
 28 29  4  0
M  END
$$$$

 Created by Python create_sdf_string function

 34 37  0  0  0  0  0  0  0  0999 V2000
   11.0759   -3.1633   18.1332 C   0  0  0  0  0  0  0  0  0  0  0  0
   14.6562   -2.4055   14.3560 O   0  0  0  0  0  0  0  0  0  0  0  0
   10.6431   -3.8710   15.9831 C   0  0  0  0  0  0  0  0  0  0  0  0
   11.9133   -4.5322   24.0808 C   0  0  0  0  0  0  0  0  0  0  0  0
    2.4584   -8.7220   15.9863 C   0  0  0  0  0  0  0  0  0  0  0  0
   10.9886   -3.5975   23.8133 C   0  0  0  0  0  0  0  0  0  0  0  0
    2.1286   -7.4888   15.2246 C   0  0  0  0  0  0  0  0  0  0  0  0
    7.8119   -6.5261   16.8255 C   0  0  0  0  0  0  0  0  0  0  0  0
   10.5994   -3.4141   22.4913 C   0  0  0  0  0  0  0  0  0  0  0  0
   12.1694   -4.9909   21.7664 C   0  0  0  0  0  0  0  0  0  0  0  0
    1.3970   -9.5761   16.1328 C   0  0  0  0  0  0  0  0  0  0  0  0
   10.3830   -4.5301   20.1861 C   0  0  0  0  0  0  0  0  0  0  0  0
   12.3594   -2.9986   12.2813 C   0  0  0  0  0  0  0  0  0  0  0  0
   12.5881   -5.1602   23.0392 C   0  0  0  0  0  0  0  0  0  0  0  0
   11.7250   -3.6174   15.3256 C   0  0  0  0  0  0  0  0  0  0  0  0
    6.5573   -8.2615   17.8352 C   0  0  0  0  0  0  0  0  0  0  0  0
    0.3142   -9.3829   15.4688 C   0  0  0  0  0  0  0  0  0  0  0  0
    5.5620   -8.2517   16.8411 C   0  0  0  0  0  0  0  0  0  0  0  0
   10.9929   -3.6424   19.7059 C   0  0  0  0  0  0  0  0  0  0  0  0
    9.4679   -5.3345   18.9117 C   0  0  0  0  0  0  0  0  0  0  0  0
    9.5890   -4.9593   17.7080 C   0  0  0  0  0  0  0  0  0  0  0  0
   10.5176   -3.9806   17.3391 C   0  0  0  0  0  0  0  0  0  0  0  0
    4.2037   -9.3448   17.1896 O   0  0  0  0  0  0  0  0  0  0  0  0
    1.0378   -7.3728   14.6099 C   0  0  0  0  0  0  0  0  0  0  0  0
    3.8133   -8.9510   16.5396 C   0  0  0  0  0  0  0  0  0  0  0  0
    6.9521   -6.5630   15.7957 C   0  0  0  0  0  0  0  0  0  0  0  0
    5.8863   -7.3845   15.8295 C   0  0  0  0  0  0  0  0  0  0  0  0
    8.8757   -5.6011   16.7603 O   0  0  0  0  0  0  0  0  0  0  0  0
   13.6469   -3.0537   14.1908 C   0  0  0  0  0  0  0  0  0  0  0  0
   11.1036   -4.1934   21.3166 C   0  0  0  0  0  0  0  0  0  0  0  0
    7.6026   -7.3440   17.8106 C   0  0  0  0  0  0  0  0  0  0  0  0
   12.7262   -3.2575   15.3289 C   0  0  0  0  0  0  0  0  0  0  0  0
   13.3429   -3.7220   12.9236 N   0  0  0  0  0  0  0  0  0  0  0  0
    0.0125   -8.3506   14.7720 C   0  0  0  0  0  0  0  0  0  0  0  0
  1 19  4  0
  1 22  4  0
  2 29  2  0
  3 15  1  0
  3 22  1  0
  4  6  4  0
  4 14  4  0
  5  7  4  0
  5 11  4  0
  5 25  1  0
  6  9  4  0
  7 24  4  0
  8 26  4  0
  8 28  1  0
  8 31  4  0
  9 30  4  0
 10 14  4  0
 10 30  4  0
 11 17  4  0
 12 19  4  0
 12 20  4  0
 12 30  1  0
 13 33  1  0
 15 32  1  0
 16 18  4  0
 16 31  4  0
 17 34  4  0
 18 27  4  0
 19 30  1  0
 20 21  4  0
 21 22  4  0
 21 28  1  0
 23 25  2  0
 24 34  4  0
 26 27  4  0
 29 32  1  0
 29 33  1  0
M  END
$$$$

 Created by Python create_sdf_string function

 34 71  0  0  0  0  0  0  0  0999 V2000
   11.4744   -3.3819   17.7306 Br  0  0  0  0  0  0  0  0  0  0  0  0
   14.4320   -2.2506   14.9187 O   0  0  0  0  0  0  0  0  0  0  0  0
   10.6047   -3.5572   16.2279 C   0  0  0  0  0  0  0  0  0  0  0  0
   11.6067   -4.0875   23.4900 C   0  0  0  0  0  0  0  0  0  0  0  0
    2.5941   -8.8085   15.8782 C   0  0  0  0  0  0  0  0  0  0  0  0
   10.6802   -3.3756   23.8601 C   0  0  0  0  0  0  0  0  0  0  0  0
    1.6329   -7.5274   15.1693 C   0  0  0  0  0  0  0  0  0  0  0  0
    7.7539   -6.5206   17.1978 C   0  0  0  0  0  0  0  0  0  0  0  0
   12.1944   -4.7924   21.8598 C   0  0  0  0  0  0  0  0  0  0  0  0
   10.5183   -3.9691   19.9754 C   0  0  0  0  0  0  0  0  0  0  0  0
   12.2412   -5.2134   23.1591 C   0  0  0  0  0  0  0  0  0  0  0  0
   11.8608   -3.5023   15.1343 C   0  0  0  0  0  0  0  0  0  0  0  0
    6.7792   -8.9371   17.9910 C   0  0  0  0  0  0  0  0  0  0  0  0
   -0.1612   -9.5935   15.6637 C   0  0  0  0  0  0  0  0  0  0  0  0
    5.3030   -8.6741   17.0749 C   0  0  0  0  0  0  0  0  0  0  0  0
   11.5108   -3.8288   19.1308 C   0  0  0  0  0  0  0  0  0  0  0  0
    9.3075   -5.5824   18.7779 C   0  0  0  0  0  0  0  0  0  0  0  0
    9.5510   -5.0962   16.8707 C   0  0  0  0  0  0  0  0  0  0  0  0
    9.8262   -3.4464   17.1528 N   0  0  0  0  0  0  0  0  0  0  0  0
    1.1062   -7.7311   14.7355 B   0  0  0  0  0  0  0  0  0  0  0  0
    4.7275   -9.1193   16.3952 O   0  0  0  0  0  0  0  0  0  0  0  0
    6.9626   -5.9129   15.9146 C   0  0  0  0  0  0  0  0  0  0  0  0
    6.1493   -7.2621   15.5163 C   0  0  0  0  0  0  0  0  0  0  0  0
   13.4359   -3.2038   13.9844 P   0  0  0  0  0  0  0  0  0  0  0  0
    7.6001   -6.7154   17.8537 C   0  0  0  0  0  0  0  0  0  0  0  0
   13.5987   -3.5678   12.7777 N   0  0  0  0  0  0  0  0  0  0  0  0
   -0.0384   -8.4462   13.9240 C   0  0  0  0  0  0  0  0  0  0  0  0
   10.9488   -3.4400   22.1507 He  0  0  0  0  0  0  0  0  0  0  0  0
    1.0806   -9.4635   15.5942 He  0  0  0  0  0  0  0  0  0  0  0  0
   12.0428   -2.4358   12.4396 He  0  0  0  0  0  0  0  0  0  0  0  0
    4.0004   -9.6195   17.1647 He  0  0  0  0  0  0  0  0  0  0  0  0
    8.4072   -5.9010   16.7611 He  0  0  0  0  0  0  0  0  0  0  0  0
   10.9543   -4.0424   21.8219 He  0  0  0  0  0  0  0  0  0  0  0  0
   12.5560   -3.8787   15.0164 He  0  0  0  0  0  0  0  0  0  0  0  0
  1  4  4  0
  1 11  2  0
  1 15  4  0
  1 16  4  0
  1 19  4  0
  2 15  1  0
  2 23  3  0
  2 24  2  0
  3  7  3  0
  3 12  1  0
  3 14  2  0
  3 19  2  0
  3 25  3  0
  4  9  4  0
  4 11  4  0
  4 15  4  0
  4 21  4  0
  4 22  3  0
  4 24  2  0
  5  6  4  0
  5  7  4  0
  5 10  1  0
  5 21  1  0
  6  7  3  0
  6 12  4  0
  6 15  1  0
  6 20  2  0
  7  9  2  0
  7 23  3  0
  8 20  3  0
  8 21  1  0
  8 22  4  0
  8 25  4  0
  9 11  4  0
  9 15  2  0
  9 17  4  0
  9 24  3  0
 10 16  4  0
 10 17  4  0
 10 21  1  0
 10 25  4  0
 11 20  4  0
 11 21  1  0
 11 26  2  0
 12 23  3  0
 12 24  2  0
 13 15  4  0
 13 25  4  0
 14 21  2  0
 14 26  1  0
 15 22  4  0
 15 23  1  0
 16 18  4  0
 16 23  1  0
 16 26  4  0
 16 27  2  0
 17 18  4  0
 18 19  4  0
 18 22  4  0
 18 25  2  0
 18 27  3  0
 19 25  3  0
 20 21  4  0
 20 26  2  0
 20 27  4  0
 21 24  4  0
 21 26  2  0
 23 24  3  0
 24 26  1  0
 24 27  2  0
 25 27  3  0
M  END
$$$$

 Created by Python create_sdf_string function

 34 37  0  0  0  0  0  0  0  0999 V2000
   11.1555   -3.1575   17.9090 C   0  0  0  0  0  0  0  0  0  0  0  0
   14.3319   -2.3298   14.5399 O   0  0  0  0  0  0  0  0  0  0  0  0
   10.3822   -3.8065   15.7953 C   0  0  0  0  0  0  0  0  0  0  0  0
   11.6175   -4.2801   24.0247 C   0  0  0  0  0  0  0  0  0  0  0  0
    2.3619   -8.7822   15.7562 C   0  0  0  0  0  0  0  0  0  0  0  0
   10.7099   -3.3651   23.5505 C   0  0  0  0  0  0  0  0  0  0  0  0
    2.0589   -7.5987   14.9178 C   0  0  0  0  0  0  0  0  0  0  0  0
    7.7636   -6.4988   16.9011 C   0  0  0  0  0  0  0  0  0  0  0  0
   10.4417   -3.4241   22.1972 C   0  0  0  0  0  0  0  0  0  0  0  0
   12.0583   -5.0272   21.8151 C   0  0  0  0  0  0  0  0  0  0  0  0
    1.2999   -9.6882   16.0008 C   0  0  0  0  0  0  0  0  0  0  0  0
   10.6993   -4.2647   20.0149 C   0  0  0  0  0  0  0  0  0  0  0  0
   12.4098   -2.5561   12.4001 C   0  0  0  0  0  0  0  0  0  0  0  0
   12.3615   -5.0759   23.1642 C   0  0  0  0  0  0  0  0  0  0  0  0
   11.5785   -3.5694   15.1665 C   0  0  0  0  0  0  0  0  0  0  0  0
    6.4776   -8.3018   17.8969 C   0  0  0  0  0  0  0  0  0  0  0  0
    0.1626   -9.5940   15.2563 C   0  0  0  0  0  0  0  0  0  0  0  0
    5.5603   -8.2961   16.8628 C   0  0  0  0  0  0  0  0  0  0  0  0
   11.2972   -3.3363   19.1852 C   0  0  0  0  0  0  0  0  0  0  0  0
    9.7477   -5.0474   19.0632 C   0  0  0  0  0  0  0  0  0  0  0  0
    9.5393   -4.9827   17.6909 C   0  0  0  0  0  0  0  0  0  0  0  0
   10.4157   -4.0202   17.2270 C   0  0  0  0  0  0  0  0  0  0  0  0
    4.3084   -9.2480   16.8928 C   0  0  0  0  0  0  0  0  0  0  0  0
    0.9091   -7.5003   14.3507 C   0  0  0  0  0  0  0  0  0  0  0  0
    3.5567   -9.0211   16.2798 O   0  0  0  0  0  0  0  0  0  0  0  0
    6.8377   -6.6125   15.8769 C   0  0  0  0  0  0  0  0  0  0  0  0
    5.8318   -7.3887   15.8478 C   0  0  0  0  0  0  0  0  0  0  0  0
    8.7088   -5.5224   16.9533 O   0  0  0  0  0  0  0  0  0  0  0  0
   13.5025   -2.9785   13.8508 C   0  0  0  0  0  0  0  0  0  0  0  0
   11.0522   -4.3098   21.3103 C   0  0  0  0  0  0  0  0  0  0  0  0
    7.5574   -7.4331   17.8483 C   0  0  0  0  0  0  0  0  0  0  0  0
   12.5252   -3.7049   14.8186 N   0  0  0  0  0  0  0  0  0  0  0  0
   13.7612   -3.5217   12.6267 N   0  0  0  0  0  0  0  0  0  0  0  0
   -0.0365   -8.4591   14.4925 C   0  0  0  0  0  0  0  0  0  0  0  0
  1 19  4  0
  1 22  4  0
  2 29  2  0
  3 15  1  0
  3 22  1  0
  4  6  4  0
  4 14  4  0
  5  7  4  0
  5 11  4  0
  5 25  1  0
  6  9  4  0
  7 24  4  0
  8 26  4  0
  8 28  1  0
  8 31  4  0
  9 30  4  0
 10 14  4  0
 10 30  4  0
 11 17  4  0
 12 19  4  0
 12 20  4  0
 12 30  1  0
 13 33  1  0
 15 32  1  0
 16 18  4  0
 16 31  4  0
 17 34  4  0
 18 23  1  0
 18 27  4  0
 20 21  4  0
 21 22  4  0
 21 28  1  0
 23 25  1  0
 24 34  4  0
 26 27  4  0
 29 32  1  0
 29 33  1  0
M  END
$$$$

 Created by Python create_sdf_string function

 34 57  0  0  0  0  0  0  0  0999 V2000
   11.3876   -3.6933   18.1530 C   0  0  0  0  0  0  0  0  0  0  0  0
   15.0309   -2.3126   14.6610 O   0  0  0  0  0  0  0  0  0  0  0  0
   10.1831   -2.9359   15.5747 C   0  0  0  0  0  0  0  0  0  0  0  0
   11.4041   -4.1482   24.0251 C   0  0  0  0  0  0  0  0  0  0  0  0
    2.1155   -7.1450   15.4443 C   0  0  0  0  0  0  0  0  0  0  0  0
    8.2479   -6.3215   16.8127 C   0  0  0  0  0  0  0  0  0  0  0  0
   10.3646   -3.5308   22.4353 C   0  0  0  0  0  0  0  0  0  0  0  0
    0.8626   -9.4719   15.6366 C   0  0  0  0  0  0  0  0  0  0  0  0
   10.4146   -4.3219   20.4325 N   0  0  0  0  0  0  0  0  0  0  0  0
   12.7095   -2.3259   12.8767 C   0  0  0  0  0  0  0  0  0  0  0  0
   12.4079   -4.7502   22.9236 C   0  0  0  0  0  0  0  0  0  0  0  0
    6.8043   -8.5085   18.2630 C   0  0  0  0  0  0  0  0  0  0  0  0
    0.0802   -9.7290   15.2242 C   0  0  0  0  0  0  0  0  0  0  0  0
   10.9490   -2.6464   19.2710 C   0  0  0  0  0  0  0  0  0  0  0  0
    9.6305   -5.0487   19.0221 C   0  0  0  0  0  0  0  0  0  0  0  0
    9.5859   -5.3502   17.5514 C   0  0  0  0  0  0  0  0  0  0  0  0
   10.3813   -4.2117   16.7125 C   0  0  0  0  0  0  0  0  0  0  0  0
    4.2958   -9.2936   17.3160 C   0  0  0  0  0  0  0  0  0  0  0  0
    1.0601   -7.4791   14.4045 C   0  0  0  0  0  0  0  0  0  0  0  0
    3.8278   -9.6198   16.5208 Se  0  0  0  0  0  0  0  0  0  0  0  0
    6.7063   -6.6034   16.2485 C   0  0  0  0  0  0  0  0  0  0  0  0
    5.8940   -7.2810   16.0551 F   0  0  0  0  0  0  0  0  0  0  0  0
    8.8391   -5.0105   17.2390 O   0  0  0  0  0  0  0  0  0  0  0  0
   10.9050   -4.0216   21.2108 C   0  0  0  0  0  0  0  0  0  0  0  0
    7.4955   -7.2388   17.6970 C   0  0  0  0  0  0  0  0  0  0  0  0
   -0.0041   -8.2545   14.2910 C   0  0  0  0  0  0  0  0  0  0  0  0
    2.4178   -8.4142   15.7834 He  0  0  0  0  0  0  0  0  0  0  0  0
   10.6318   -3.6134   23.6594 He  0  0  0  0  0  0  0  0  0  0  0  0
   11.9277   -4.5678   22.0333 He  0  0  0  0  0  0  0  0  0  0  0  0
   12.0034   -3.9370   15.3216 He  0  0  0  0  0  0  0  0  0  0  0  0
    4.8166   -8.5644   16.9296 He  0  0  0  0  0  0  0  0  0  0  0  0
   13.7818   -3.4704   14.4642 He  0  0  0  0  0  0  0  0  0  0  0  0
   12.7093   -4.0399   14.7516 He  0  0  0  0  0  0  0  0  0  0  0  0
   12.9729   -3.5910   12.6917 He  0  0  0  0  0  0  0  0  0  0  0  0
  1  7  3  0
  1 10  1  0
  1 12  1  0
  1 13  2  0
  1 14  1  0
  1 17  1  0
  1 22  3  0
  2  6  2  0
  3  7  4  0
  3 16  4  0
  3 17  1  0
  3 20  4  0
  3 25  2  0
  4  7  1  0
  4 11  4  0
  4 24  2  0
  5  8  2  0
  5 19  4  0
  5 24  1  0
  6  9  1  0
  6 13  4  0
  6 21  4  0
  6 23  1  0
  6 25  4  0
  7 10  1  0
  7 24  4  0
  8 12  1  0
  8 13  4  0
  8 15  2  0
  8 16  1  0
  8 20  2  0
  8 21  1  0
  8 22  1  0
  9 14  4  0
  9 15  4  0
  9 26  2  0
 10 12  3  0
 10 19  2  0
 11 15  1  0
 11 22  4  0
 11 25  2  0
 11 26  2  0
 13 19  3  0
 15 16  4  0
 15 23  4  0
 16 17  4  0
 16 19  1  0
 16 23  1  0
 16 26  3  0
 17 23  1  0
 17 24  2  0
 18 20  1  0
 19 20  2  0
 19 21  4  0
 21 22  4  0
 22 24  4  0
 22 25  3  0
M  END
$$$$

 Created by Python create_sdf_string function

 34 37  0  0  0  0  0  0  0  0999 V2000
   11.1587   -3.0956   17.9082 C   0  0  0  0  0  0  0  0  0  0  0  0
   14.7117   -2.6947   14.5378 O   0  0  0  0  0  0  0  0  0  0  0  0
   10.4649   -3.9514   15.8403 C   0  0  0  0  0  0  0  0  0  0  0  0
   11.6410   -4.2442   24.0429 C   0  0  0  0  0  0  0  0  0  0  0  0
    2.2913   -8.7971   15.8542 C   0  0  0  0  0  0  0  0  0  0  0  0
   10.6025   -3.4958   23.7056 C   0  0  0  0  0  0  0  0  0  0  0  0
    2.1059   -7.5303   15.1941 C   0  0  0  0  0  0  0  0  0  0  0  0
    7.8288   -6.5127   16.9642 C   0  0  0  0  0  0  0  0  0  0  0  0
   10.2549   -3.4366   22.3340 C   0  0  0  0  0  0  0  0  0  0  0  0
   12.0027   -4.8974   21.7822 C   0  0  0  0  0  0  0  0  0  0  0  0
    1.1859   -9.6391   15.7912 C   0  0  0  0  0  0  0  0  0  0  0  0
   10.6365   -4.1684   20.0170 C   0  0  0  0  0  0  0  0  0  0  0  0
   12.5665   -2.3823   12.3287 C   0  0  0  0  0  0  0  0  0  0  0  0
   12.3676   -4.8982   23.1327 C   0  0  0  0  0  0  0  0  0  0  0  0
   11.6056   -3.6119   15.1254 N   0  0  0  0  0  0  0  0  0  0  0  0
    6.5361   -8.2721   17.9885 C   0  0  0  0  0  0  0  0  0  0  0  0
    0.1290   -9.3949   14.9748 C   0  0  0  0  0  0  0  0  0  0  0  0
    5.5891   -8.2003   17.0515 C   0  0  0  0  0  0  0  0  0  0  0  0
   11.1901   -3.1585   19.2427 C   0  0  0  0  0  0  0  0  0  0  0  0
    9.8251   -4.9956   19.1799 C   0  0  0  0  0  0  0  0  0  0  0  0
    9.6814   -4.9869   17.8324 C   0  0  0  0  0  0  0  0  0  0  0  0
   10.4650   -4.0263   17.2411 C   0  0  0  0  0  0  0  0  0  0  0  0
    4.3718   -9.0684   17.1768 C   0  0  0  0  0  0  0  0  0  0  0  0
    1.0933   -7.2637   14.4732 C   0  0  0  0  0  0  0  0  0  0  0  0
    3.4526   -9.1959   16.4972 C   0  0  0  0  0  0  0  0  0  0  0  0
    6.7929   -6.4709   16.0363 C   0  0  0  0  0  0  0  0  0  0  0  0
    5.7433   -7.2822   16.0187 C   0  0  0  0  0  0  0  0  0  0  0  0
    8.9511   -5.7038   16.9674 O   0  0  0  0  0  0  0  0  0  0  0  0
   13.7359   -3.1811   14.1906 C   0  0  0  0  0  0  0  0  0  0  0  0
   10.9295   -4.2128   21.3105 C   0  0  0  0  0  0  0  0  0  0  0  0
    7.6150   -7.4294   17.9285 C   0  0  0  0  0  0  0  0  0  0  0  0
   12.7593   -3.7656   15.0714 N   0  0  0  0  0  0  0  0  0  0  0  0
   13.3031   -3.4195   12.7703 N   0  0  0  0  0  0  0  0  0  0  0  0
    0.0992   -8.1701   14.3428 C   0  0  0  0  0  0  0  0  0  0  0  0
  1 19  4  0
  1 22  4  0
  2 29  2  0
  3 15  1  0
  3 22  1  0
  4  6  4  0
  4 14  4  0
  5  7  4  0
  5 11  4  0
  5 25  1  0
  6  9  4  0
  7 24  4  0
  8 26  4  0
  8 28  1  0
  8 31  4  0
  9 30  4  0
 10 14  4  0
 10 30  4  0
 11 17  4  0
 12 19  4  0
 12 20  4  0
 12 30  1  0
 13 33  1  0
 15 32  1  0
 16 18  4  0
 16 31  4  0
 17 34  4  0
 18 23  1  0
 18 27  4  0
 20 21  4  0
 21 22  4  0
 21 28  1  0
 23 25  1  0
 24 34  4  0
 26 27  4  0
 29 32  1  0
 29 33  1  0
M  END
$$$$

 Created by Python create_sdf_string function

 34 64  0  0  0  0  0  0  0  0999 V2000
   10.9335   -3.2589   18.1700 C   0  0  0  0  0  0  0  0  0  0  0  0
   10.7875   -4.1037   16.0156 C   0  0  0  0  0  0  0  0  0  0  0  0
    2.1971   -9.2296   15.3731 C   0  0  0  0  0  0  0  0  0  0  0  0
    2.4722   -6.9163   15.3816 C   0  0  0  0  0  0  0  0  0  0  0  0
    7.2600   -6.7431   16.9021 C   0  0  0  0  0  0  0  0  0  0  0  0
   10.7751   -3.1671   22.6359 C   0  0  0  0  0  0  0  0  0  0  0  0
   12.5408   -5.2903   22.1434 C   0  0  0  0  0  0  0  0  0  0  0  0
    1.1237   -9.6748   15.1442 C   0  0  0  0  0  0  0  0  0  0  0  0
   10.8638   -3.6790   20.0751 C   0  0  0  0  0  0  0  0  0  0  0  0
   12.5497   -4.5850   22.5091 C   0  0  0  0  0  0  0  0  0  0  0  0
   11.1520   -3.7849   15.1174 N   0  0  0  0  0  0  0  0  0  0  0  0
    6.6327   -8.3729   18.7132 C   0  0  0  0  0  0  0  0  0  0  0  0
    5.4165   -8.6915   16.3100 N   0  0  0  0  0  0  0  0  0  0  0  0
   11.3540   -3.1965   19.4086 P   0  0  0  0  0  0  0  0  0  0  0  0
   10.0219   -5.7197   19.0338 C   0  0  0  0  0  0  0  0  0  0  0  0
    9.2037   -4.8099   17.7486 C   0  0  0  0  0  0  0  0  0  0  0  0
    4.1466   -9.4339   17.2162 C   0  0  0  0  0  0  0  0  0  0  0  0
    1.2398   -7.4114   15.0413 C   0  0  0  0  0  0  0  0  0  0  0  0
    3.7835   -8.8564   16.4082 C   0  0  0  0  0  0  0  0  0  0  0  0
    6.0525   -7.5282   16.3981 C   0  0  0  0  0  0  0  0  0  0  0  0
    8.8107   -5.5719   16.3760 F   0  0  0  0  0  0  0  0  0  0  0  0
   13.9462   -3.2662   13.8949 C   0  0  0  0  0  0  0  0  0  0  0  0
   11.0939   -4.1553   21.6652 C   0  0  0  0  0  0  0  0  0  0  0  0
    7.5818   -7.4124   18.2818 C   0  0  0  0  0  0  0  0  0  0  0  0
   12.2091   -3.5985   15.2347 N   0  0  0  0  0  0  0  0  0  0  0  0
   12.9897   -3.9277   12.5635 N   0  0  0  0  0  0  0  0  0  0  0  0
    0.4178   -7.8814   14.7300 N   0  0  0  0  0  0  0  0  0  0  0  0
   15.0711   -3.0694   14.4876 He  0  0  0  0  0  0  0  0  0  0  0  0
   12.4594   -3.9811   24.3414 He  0  0  0  0  0  0  0  0  0  0  0  0
   10.3869   -3.8993   23.3595 He  0  0  0  0  0  0  0  0  0  0  0  0
   12.0020   -1.8334   12.7447 He  0  0  0  0  0  0  0  0  0  0  0  0
    0.1506   -9.3364   15.5069 He  0  0  0  0  0  0  0  0  0  0  0  0
   10.2183   -3.5683   17.4367 He  0  0  0  0  0  0  0  0  0  0  0  0
    7.0972   -6.2406   15.9951 He  0  0  0  0  0  0  0  0  0  0  0  0
  1  2  2  0
  1  8  2  0
  1 10  2  0
  1 11  1  0
  1 14  4  0
  1 24  1  0
  1 25  2  0
  2 11  1  0
  2 13  1  0
  2 20  1  0
  2 22  4  0
  2 25  1  0
  3  4  4  0
  3  5  4  0
  3  8  4  0
  3 11  2  0
  3 19  1  0
  3 20  4  0
  4 18  4  0
  4 20  1  0
  5  6  1  0
  5 20  2  0
  5 21  1  0
  6  7  2  0
  6 18  2  0
  6 23  4  0
  7 10  4  0
  7 23  4  0
  8 10  3  0
  8 13  3  0
  8 25  1  0
  8 26  1  0
  9 13  2  0
  9 14  4  0
  9 20  3  0
  9 23  1  0
  9 24  2  0
 10 16  2  0
 10 25  4  0
 11 17  2  0
 11 18  1  0
 11 21  4  0
 12 13  4  0
 12 24  4  0
 13 20  4  0
 13 22  4  0
 13 24  4  0
 13 27  3  0
 14 18  3  0
 14 20  3  0
 14 21  1  0
 14 22  3  0
 15 16  4  0
 16 21  1  0
 16 22  2  0
 17 19  1  0
 17 24  4  0
 18 27  4  0
 19 22  1  0
 19 27  1  0
 21 27  3  0
 22 25  1  0
 22 26  1  0
 25 27  3  0
M  END
$$$$

 Created by Python create_sdf_string function

 34 37  0  0  0  0  0  0  0  0999 V2000
   11.0279   -2.9870   17.9806 C   0  0  0  0  0  0  0  0  0  0  0  0
   14.7728   -3.0675   14.2669 O   0  0  0  0  0  0  0  0  0  0  0  0
   10.4348   -3.9943   15.8691 C   0  0  0  0  0  0  0  0  0  0  0  0
   11.9949   -4.2052   24.0133 C   0  0  0  0  0  0  0  0  0  0  0  0
    2.4200   -8.7749   15.7222 C   0  0  0  0  0  0  0  0  0  0  0  0
   10.8224   -3.5294   23.6883 C   0  0  0  0  0  0  0  0  0  0  0  0
    2.2360   -7.3725   15.3141 C   0  0  0  0  0  0  0  0  0  0  0  0
    7.7777   -6.5609   17.0146 C   0  0  0  0  0  0  0  0  0  0  0  0
   10.4593   -3.6157   22.3754 C   0  0  0  0  0  0  0  0  0  0  0  0
   12.3395   -4.8620   21.7721 C   0  0  0  0  0  0  0  0  0  0  0  0
    1.3326   -9.6174   15.5613 C   0  0  0  0  0  0  0  0  0  0  0  0
   10.7795   -4.1770   20.0532 C   0  0  0  0  0  0  0  0  0  0  0  0
   12.2860   -2.3864   12.3861 C   0  0  0  0  0  0  0  0  0  0  0  0
   12.7489   -4.8991   23.0687 C   0  0  0  0  0  0  0  0  0  0  0  0
   11.4190   -3.7984   15.1580 N   0  0  0  0  0  0  0  0  0  0  0  0
    6.5122   -8.2486   18.0715 C   0  0  0  0  0  0  0  0  0  0  0  0
    0.2257   -9.1797   15.0368 C   0  0  0  0  0  0  0  0  0  0  0  0
    5.6593   -8.3011   17.0253 C   0  0  0  0  0  0  0  0  0  0  0  0
   11.1496   -3.0514   19.3694 N   0  0  0  0  0  0  0  0  0  0  0  0
    9.9612   -5.0630   19.2283 C   0  0  0  0  0  0  0  0  0  0  0  0
    9.6891   -5.0390   17.8312 C   0  0  0  0  0  0  0  0  0  0  0  0
   10.4398   -4.0039   17.2964 C   0  0  0  0  0  0  0  0  0  0  0  0
    4.4832   -9.1822   17.0661 C   0  0  0  0  0  0  0  0  0  0  0  0
    1.0891   -7.0073   14.8440 C   0  0  0  0  0  0  0  0  0  0  0  0
    3.6472   -9.3845   16.1579 C   0  0  0  0  0  0  0  0  0  0  0  0
    6.8104   -6.6140   15.9399 C   0  0  0  0  0  0  0  0  0  0  0  0
    5.9027   -7.4895   15.9695 C   0  0  0  0  0  0  0  0  0  0  0  0
    8.9335   -5.6056   16.9893 O   0  0  0  0  0  0  0  0  0  0  0  0
   13.5577   -3.2561   14.0687 C   0  0  0  0  0  0  0  0  0  0  0  0
   11.1705   -4.2841   21.3299 C   0  0  0  0  0  0  0  0  0  0  0  0
    7.6123   -7.3943   18.0237 C   0  0  0  0  0  0  0  0  0  0  0  0
   12.5776   -3.4619   15.0901 N   0  0  0  0  0  0  0  0  0  0  0  0
   13.0944   -3.4692   12.6676 N   0  0  0  0  0  0  0  0  0  0  0  0
    0.0497   -7.8263   14.7986 C   0  0  0  0  0  0  0  0  0  0  0  0
  1 19  4  0
  1 22  4  0
  2 29  2  0
  3 15  1  0
  3 22  1  0
  4  6  4  0
  4 14  4  0
  5  7  4  0
  5 11  4  0
  5 25  1  0
  6  9  4  0
  7 24  4  0
  8 26  4  0
  8 28  1  0
  8 31  4  0
  9 30  4  0
 10 14  4  0
 10 30  4  0
 11 17  4  0
 12 19  4  0
 12 20  4  0
 12 30  1  0
 13 33  1  0
 15 32  1  0
 16 18  4  0
 16 31  4  0
 17 34  4  0
 18 23  1  0
 18 27  4  0
 20 21  4  0
 21 22  4  0
 21 28  1  0
 23 25  1  0
 24 34  4  0
 26 27  4  0
 29 32  1  0
 29 33  1  0
M  END
$$$$

 Created by Python create_sdf_string function

 34 48  0  0  0  0  0  0  0  0999 V2000
   11.4135   -3.1363   17.7693 C   0  0  0  0  0  0  0  0  0  0  0  0
   10.8236   -3.6926   16.4134 C   0  0  0  0  0  0  0  0  0  0  0  0
   11.7795   -3.9765   24.3037 C   0  0  0  0  0  0  0  0  0  0  0  0
   11.2577   -3.2636   23.5898 C   0  0  0  0  0  0  0  0  0  0  0  0
    2.1681   -7.4534   15.5972 C   0  0  0  0  0  0  0  0  0  0  0  0
    7.5407   -6.5548   17.4003 C   0  0  0  0  0  0  0  0  0  0  0  0
   12.6681   -4.9071   22.0653 C   0  0  0  0  0  0  0  0  0  0  0  0
    1.3424   -9.7738   15.6899 Cl  0  0  0  0  0  0  0  0  0  0  0  0
   10.6033   -4.1602   20.2575 C   0  0  0  0  0  0  0  0  0  0  0  0
   12.3060   -2.0048   12.2359 O   0  0  0  0  0  0  0  0  0  0  0  0
   12.1808   -4.9826   23.0936 C   0  0  0  0  0  0  0  0  0  0  0  0
   11.2778   -3.8830   15.1633 N   0  0  0  0  0  0  0  0  0  0  0  0
    6.3411   -8.3298   17.7707 C   0  0  0  0  0  0  0  0  0  0  0  0
    0.4388   -9.5957   15.3136 C   0  0  0  0  0  0  0  0  0  0  0  0
   11.4111   -2.9900   19.8107 N   0  0  0  0  0  0  0  0  0  0  0  0
    9.6514   -5.3268   18.2576 C   0  0  0  0  0  0  0  0  0  0  0  0
   10.2037   -3.9610   17.5840 C   0  0  0  0  0  0  0  0  0  0  0  0
    4.5377   -8.9137   17.2895 C   0  0  0  0  0  0  0  0  0  0  0  0
    3.7049   -9.3399   16.2465 C   0  0  0  0  0  0  0  0  0  0  0  0
    6.4136   -6.4781   15.9684 C   0  0  0  0  0  0  0  0  0  0  0  0
    6.0648   -7.4036   15.7269 C   0  0  0  0  0  0  0  0  0  0  0  0
    8.4772   -5.6737   16.9402 O   0  0  0  0  0  0  0  0  0  0  0  0
   13.7033   -2.9461   14.3201 C   0  0  0  0  0  0  0  0  0  0  0  0
   11.2120   -4.4549   21.4965 C   0  0  0  0  0  0  0  0  0  0  0  0
    7.4479   -7.2873   17.5614 C   0  0  0  0  0  0  0  0  0  0  0  0
   13.1652   -3.3952   13.3468 N   0  0  0  0  0  0  0  0  0  0  0  0
    0.3604   -8.0236   14.6420 C   0  0  0  0  0  0  0  0  0  0  0  0
   14.3991   -3.2725   13.7551 He  0  0  0  0  0  0  0  0  0  0  0  0
    2.1294   -8.5133   15.7792 He  0  0  0  0  0  0  0  0  0  0  0  0
   10.7163   -3.9388   22.2232 He  0  0  0  0  0  0  0  0  0  0  0  0
    6.0314   -8.1693   16.2618 He  0  0  0  0  0  0  0  0  0  0  0  0
    9.9264   -5.0301   19.1220 He  0  0  0  0  0  0  0  0  0  0  0  0
    1.2415   -6.7259   15.0345 He  0  0  0  0  0  0  0  0  0  0  0  0
   13.0281   -3.6252   15.1661 He  0  0  0  0  0  0  0  0  0  0  0  0
  1  4  3  0
  1 14  1  0
  1 15  4  0
  1 23  3  0
  2  9  3  0
  2 12  1  0
  2 16  4  0
  2 17  2  0
  2 21  2  0
  3  4  4  0
  3  7  1  0
  3 19  2  0
  3 20  2  0
  4 27  4  0
  5 14  1  0
  5 26  1  0
  5 27  3  0
  6 22  1  0
  6 25  4  0
  6 27  3  0
  7 10  1  0
  7 11  4  0
  7 16  1  0
  7 17  2  0
  7 24  4  0
  8 10  2  0
  8 17  3  0
  8 20  3  0
  9 12  3  0
  9 20  3  0
 10 12  3  0
 10 23  4  0
 10 26  1  0
 11 26  2  0
 13 19  2  0
 13 25  1  0
 13 27  4  0
 14 20  1  0
 14 23  3  0
 14 27  4  0
 15 22  4  0
 16 17  4  0
 16 19  4  0
 16 22  1  0
 18 23  2  0
 20 21  4  0
 20 23  4  0
 23 26  1  0
M  END
$$$$

 Created by Python create_sdf_string function

 34 37  0  0  0  0  0  0  0  0999 V2000
   11.1254   -3.1029   18.0761 C   0  0  0  0  0  0  0  0  0  0  0  0
   14.6965   -3.1137   13.7586 O   0  0  0  0  0  0  0  0  0  0  0  0
   10.6796   -4.1485   15.9563 C   0  0  0  0  0  0  0  0  0  0  0  0
   11.8803   -4.2494   24.1196 C   0  0  0  0  0  0  0  0  0  0  0  0
    2.3711   -8.7882   15.8641 C   0  0  0  0  0  0  0  0  0  0  0  0
   10.8268   -3.4836   23.7114 C   0  0  0  0  0  0  0  0  0  0  0  0
    2.2202   -7.3971   15.5460 C   0  0  0  0  0  0  0  0  0  0  0  0
    7.8128   -6.4496   16.9671 C   0  0  0  0  0  0  0  0  0  0  0  0
   10.5278   -3.4175   22.3832 C   0  0  0  0  0  0  0  0  0  0  0  0
   12.0691   -5.0312   21.8933 C   0  0  0  0  0  0  0  0  0  0  0  0
    1.3038   -9.6327   15.6626 C   0  0  0  0  0  0  0  0  0  0  0  0
   10.8366   -4.2328   20.1020 C   0  0  0  0  0  0  0  0  0  0  0  0
   12.5389   -2.3541   12.2880 O   0  0  0  0  0  0  0  0  0  0  0  0
   12.5465   -5.0534   23.2105 C   0  0  0  0  0  0  0  0  0  0  0  0
   11.5370   -3.6769   15.2979 N   0  0  0  0  0  0  0  0  0  0  0  0
    6.5722   -8.2565   17.8772 C   0  0  0  0  0  0  0  0  0  0  0  0
    0.2414   -9.1625   14.9950 C   0  0  0  0  0  0  0  0  0  0  0  0
    5.6811   -8.2161   16.8336 C   0  0  0  0  0  0  0  0  0  0  0  0
   11.3340   -3.1738   19.3995 N   0  0  0  0  0  0  0  0  0  0  0  0
   10.0043   -5.0533   19.3797 C   0  0  0  0  0  0  0  0  0  0  0  0
    9.6662   -5.0156   17.9364 C   0  0  0  0  0  0  0  0  0  0  0  0
   10.4981   -4.0783   17.4148 C   0  0  0  0  0  0  0  0  0  0  0  0
    4.4590   -9.1545   16.8615 C   0  0  0  0  0  0  0  0  0  0  0  0
    1.1923   -7.0153   14.9064 C   0  0  0  0  0  0  0  0  0  0  0  0
    3.7295   -9.3314   16.3935 C   0  0  0  0  0  0  0  0  0  0  0  0
    6.9450   -6.4450   15.8935 C   0  0  0  0  0  0  0  0  0  0  0  0
    5.8957   -7.2919   15.7815 C   0  0  0  0  0  0  0  0  0  0  0  0
    8.8433   -5.5863   17.1293 O   0  0  0  0  0  0  0  0  0  0  0  0
   13.3628   -3.1198   14.2134 C   0  0  0  0  0  0  0  0  0  0  0  0
   11.1448   -4.2795   21.4105 C   0  0  0  0  0  0  0  0  0  0  0  0
    7.6418   -7.3351   17.8705 C   0  0  0  0  0  0  0  0  0  0  0  0
   12.8007   -3.4551   15.3413 C   0  0  0  0  0  0  0  0  0  0  0  0
   12.9423   -3.2086   13.1897 N   0  0  0  0  0  0  0  0  0  0  0  0
    0.1678   -7.8185   14.6610 C   0  0  0  0  0  0  0  0  0  0  0  0
  1 19  4  0
  1 22  4  0
  2 29  2  0
  3 15  1  0
  3 22  1  0
  4  6  4  0
  4 14  4  0
  5  7  4  0
  5 11  4  0
  5 25  1  0
  6  9  4  0
  7 24  4  0
  8 26  4  0
  8 28  1  0
  8 31  4  0
  9 30  4  0
 10 14  4  0
 10 30  4  0
 11 17  4  0
 12 19  4  0
 12 20  4  0
 12 30  1  0
 13 33  1  0
 15 32  1  0
 16 18  4  0
 16 31  4  0
 17 34  4  0
 18 23  1  0
 18 27  4  0
 20 21  4  0
 21 22  4  0
 21 28  1  0
 23 25  3  0
 24 34  4  0
 26 27  4  0
 29 32  1  0
 29 33  1  0
M  END
$$$$

 Created by Python create_sdf_string function

 34 50  0  0  0  0  0  0  0  0999 V2000
   11.6926   -2.7907   17.7364 Se  0  0  0  0  0  0  0  0  0  0  0  0
   10.6175   -3.7863   16.0028 C   0  0  0  0  0  0  0  0  0  0  0  0
   11.7479   -4.3172   23.3808 C   0  0  0  0  0  0  0  0  0  0  0  0
    2.3603   -8.6662   16.5373 C   0  0  0  0  0  0  0  0  0  0  0  0
   10.5218   -3.5690   23.6468 C   0  0  0  0  0  0  0  0  0  0  0  0
   12.5937   -5.2127   21.7359 C   0  0  0  0  0  0  0  0  0  0  0  0
    1.7018   -9.4019   15.5698 C   0  0  0  0  0  0  0  0  0  0  0  0
   10.5121   -4.0476   20.1944 C   0  0  0  0  0  0  0  0  0  0  0  0
   12.6994   -2.0893   11.5714 O   0  0  0  0  0  0  0  0  0  0  0  0
   12.4275   -4.7482   22.9877 C   0  0  0  0  0  0  0  0  0  0  0  0
   11.6915   -3.5781   15.4866 N   0  0  0  0  0  0  0  0  0  0  0  0
    6.4037   -8.5742   17.6915 C   0  0  0  0  0  0  0  0  0  0  0  0
   10.9817   -2.8882   19.3812 F   0  0  0  0  0  0  0  0  0  0  0  0
    9.6465   -5.0076   19.2955 N   0  0  0  0  0  0  0  0  0  0  0  0
    9.0156   -4.6219   18.3469 C   0  0  0  0  0  0  0  0  0  0  0  0
   10.5460   -4.3479   17.1759 C   0  0  0  0  0  0  0  0  0  0  0  0
    4.1827   -9.0482   16.4784 C   0  0  0  0  0  0  0  0  0  0  0  0
    7.3870   -6.7554   16.3009 O   0  0  0  0  0  0  0  0  0  0  0  0
    5.4453   -7.1637   15.6815 P   0  0  0  0  0  0  0  0  0  0  0  0
    8.9422   -5.8388   17.1564 O   0  0  0  0  0  0  0  0  0  0  0  0
   13.8938   -3.3059   14.1327 C   0  0  0  0  0  0  0  0  0  0  0  0
   10.9117   -4.1072   21.7838 C   0  0  0  0  0  0  0  0  0  0  0  0
    7.9086   -8.1045   18.2367 C   0  0  0  0  0  0  0  0  0  0  0  0
   13.0081   -3.5612   15.0939 C   0  0  0  0  0  0  0  0  0  0  0  0
   -0.1339   -7.9468   14.3418 F   0  0  0  0  0  0  0  0  0  0  0  0
   14.5098   -3.4287   13.8738 He  0  0  0  0  0  0  0  0  0  0  0  0
    2.1210   -7.5033   15.2470 He  0  0  0  0  0  0  0  0  0  0  0  0
    7.9957   -6.3512   16.9141 He  0  0  0  0  0  0  0  0  0  0  0  0
   10.7004   -3.8639   22.5958 He  0  0  0  0  0  0  0  0  0  0  0  0
    0.2684   -9.3655   15.0145 He  0  0  0  0  0  0  0  0  0  0  0  0
    5.3129   -8.4256   16.7142 He  0  0  0  0  0  0  0  0  0  0  0  0
    4.2871   -8.5732   17.0216 He  0  0  0  0  0  0  0  0  0  0  0  0
    1.5516   -6.3138   15.3229 He  0  0  0  0  0  0  0  0  0  0  0  0
   13.3568   -3.8162   13.0806 He  0  0  0  0  0  0  0  0  0  0  0  0
  1  2  3  0
  1  7  3  0
  1  8  4  0
  1 13  4  0
  1 16  4  0
  1 23  1  0
  2  7  4  0
  2 10  3  0
  2 11  1  0
  2 16  1  0
  2 22  4  0
  3  5  4  0
  3 10  4  0
  3 15  1  0
  3 17  1  0
  3 20  3  0
  4  7  4  0
  4 17  1  0
  4 23  2  0
  5 16  3  0
  5 17  1  0
  6 10  4  0
  6 18  2  0
  6 22  4  0
  7  9  2  0
  7 22  2  0
  7 24  1  0
  7 25  4  0
  8 13  4  0
  8 14  3  0
  8 15  3  0
  8 18  4  0
  8 22  1  0
  8 25  2  0
  9 12  1  0
 11 19  3  0
 11 24  1  0
 12 19  4  0
 12 23  4  0
 13 21  1  0
 13 22  4  0
 14 15  4  0
 15 16  4  0
 15 20  1  0
 15 22  4  0
 18 19  4  0
 20 21  1  0
 20 22  3  0
 21 24  1  0
 22 24  2  0
M  END
$$$$

 Created by Python create_sdf_string function

 34 37  0  0  0  0  0  0  0  0999 V2000
   11.1520   -2.9825   17.9974 C   0  0  0  0  0  0  0  0  0  0  0  0
   14.8427   -3.1921   13.8908 O   0  0  0  0  0  0  0  0  0  0  0  0
   10.6440   -4.0402   15.8616 C   0  0  0  0  0  0  0  0  0  0  0  0
   11.8701   -4.4219   23.9830 C   0  0  0  0  0  0  0  0  0  0  0  0
    2.3628   -8.6289   15.9164 C   0  0  0  0  0  0  0  0  0  0  0  0
   10.7332   -3.6970   23.6823 C   0  0  0  0  0  0  0  0  0  0  0  0
    2.2028   -7.2573   15.6102 C   0  0  0  0  0  0  0  0  0  0  0  0
    8.0133   -6.5784   17.1026 C   0  0  0  0  0  0  0  0  0  0  0  0
   10.3600   -3.5748   22.3421 C   0  0  0  0  0  0  0  0  0  0  0  0
   12.1710   -4.8919   21.6712 C   0  0  0  0  0  0  0  0  0  0  0  0
    1.3776   -9.4867   15.6045 C   0  0  0  0  0  0  0  0  0  0  0  0
   10.6977   -4.0700   20.0692 C   0  0  0  0  0  0  0  0  0  0  0  0
   12.8924   -2.4046   11.8963 O   0  0  0  0  0  0  0  0  0  0  0  0
   12.6189   -5.0218   22.9750 C   0  0  0  0  0  0  0  0  0  0  0  0
   11.6092   -3.6589   15.1876 N   0  0  0  0  0  0  0  0  0  0  0  0
    6.6717   -8.3903   17.8778 C   0  0  0  0  0  0  0  0  0  0  0  0
    0.2777   -9.0436   14.9069 C   0  0  0  0  0  0  0  0  0  0  0  0
    5.7357   -8.1326   16.9492 C   0  0  0  0  0  0  0  0  0  0  0  0
   11.2349   -3.0584   19.3733 N   0  0  0  0  0  0  0  0  0  0  0  0
    9.8314   -4.9177   19.3540 C   0  0  0  0  0  0  0  0  0  0  0  0
    9.7142   -4.9364   17.9665 C   0  0  0  0  0  0  0  0  0  0  0  0
   10.5086   -3.9778   17.3724 C   0  0  0  0  0  0  0  0  0  0  0  0
    4.4394   -8.7906   17.0342 O   0  0  0  0  0  0  0  0  0  0  0  0
    1.1899   -6.8972   14.8443 C   0  0  0  0  0  0  0  0  0  0  0  0
    3.5650   -9.1819   16.6225 C   0  0  0  0  0  0  0  0  0  0  0  0
    7.0815   -6.4338   16.0939 C   0  0  0  0  0  0  0  0  0  0  0  0
    6.0294   -7.1908   15.9929 C   0  0  0  0  0  0  0  0  0  0  0  0
    9.0253   -5.7141   17.2414 O   0  0  0  0  0  0  0  0  0  0  0  0
   13.7019   -3.3001   13.9201 C   0  0  0  0  0  0  0  0  0  0  0  0
   11.0522   -4.2189   21.3286 C   0  0  0  0  0  0  0  0  0  0  0  0
    7.8078   -7.6749   17.9569 C   0  0  0  0  0  0  0  0  0  0  0  0
   12.8114   -3.4328   15.1526 C   0  0  0  0  0  0  0  0  0  0  0  0
   12.9573   -3.4887   12.7028 N   0  0  0  0  0  0  0  0  0  0  0  0
    0.2264   -7.7803   14.5534 C   0  0  0  0  0  0  0  0  0  0  0  0
  1 19  4  0
  1 22  4  0
  2 29  2  0
  3 15  1  0
  3 22  1  0
  4  6  4  0
  4 14  4  0
  5  7  4  0
  5 11  4  0
  5 25  1  0
  6  9  4  0
  7 24  4  0
  8 26  4  0
  8 28  1  0
  8 31  4  0
  9 30  4  0
 10 14  4  0
 10 30  4  0
 11 17  4  0
 12 19  4  0
 12 20  4  0
 12 30  1  0
 13 33  1  0
 15 32  1  0
 16 18  4  0
 16 31  4  0
 17 34  4  0
 18 23  1  0
 18 27  4  0
 20 21  4  0
 21 22  4  0
 21 28  1  0
 23 25  1  0
 24 34  4  0
 26 27  4  0
 29 32  1  0
 29 33  1  0
M  END
$$$$

 Created by Python create_sdf_string function

 34 63  0  0  0  0  0  0  0  0999 V2000
   11.1464   -3.2696   18.0872 C   0  0  0  0  0  0  0  0  0  0  0  0
   15.0010   -3.2270   14.1197 C   0  0  0  0  0  0  0  0  0  0  0  0
   11.7052   -4.1872   23.8808 Br  0  0  0  0  0  0  0  0  0  0  0  0
    2.4327   -8.6173   16.0510 C   0  0  0  0  0  0  0  0  0  0  0  0
   10.8896   -3.8779   24.2053 C   0  0  0  0  0  0  0  0  0  0  0  0
    2.4721   -7.0945   15.9303 N   0  0  0  0  0  0  0  0  0  0  0  0
    7.5410   -6.4117   17.3420 C   0  0  0  0  0  0  0  0  0  0  0  0
   12.6121   -4.7875   21.9003 C   0  0  0  0  0  0  0  0  0  0  0  0
    1.0551   -9.4632   15.5746 C   0  0  0  0  0  0  0  0  0  0  0  0
   11.0599   -4.0171   19.7593 C   0  0  0  0  0  0  0  0  0  0  0  0
   12.4931   -2.5260   11.7917 O   0  0  0  0  0  0  0  0  0  0  0  0
   12.2656   -5.2660   23.1592 C   0  0  0  0  0  0  0  0  0  0  0  0
    6.5343   -8.1579   17.8353 Cl  0  0  0  0  0  0  0  0  0  0  0  0
    0.4581   -8.9231   14.9446 C   0  0  0  0  0  0  0  0  0  0  0  0
    5.6945   -8.0533   16.8304 C   0  0  0  0  0  0  0  0  0  0  0  0
   11.4191   -3.4124   19.4778 N   0  0  0  0  0  0  0  0  0  0  0  0
    9.6526   -5.2288   19.4726 C   0  0  0  0  0  0  0  0  0  0  0  0
    9.4373   -4.7274   18.1355 C   0  0  0  0  0  0  0  0  0  0  0  0
   10.4647   -4.1335   17.5259 C   0  0  0  0  0  0  0  0  0  0  0  0
    4.4126   -8.7173   17.5155 O   0  0  0  0  0  0  0  0  0  0  0  0
    1.2313   -6.9204   14.9058 C   0  0  0  0  0  0  0  0  0  0  0  0
    3.5882   -8.8442   16.4972 S   0  0  0  0  0  0  0  0  0  0  0  0
    7.4478   -6.1043   15.9770 C   0  0  0  0  0  0  0  0  0  0  0  0
    6.5058   -7.7597   15.6545 C   0  0  0  0  0  0  0  0  0  0  0  0
    8.6483   -5.6766   17.7651 C   0  0  0  0  0  0  0  0  0  0  0  0
   13.4839   -3.6316   13.4828 C   0  0  0  0  0  0  0  0  0  0  0  0
   11.4520   -4.5522   21.2655 C   0  0  0  0  0  0  0  0  0  0  0  0
    7.8232   -7.2976   18.0833 C   0  0  0  0  0  0  0  0  0  0  0  0
   12.8206   -2.8411   14.6784 C   0  0  0  0  0  0  0  0  0  0  0  0
    0.5062   -7.6532   14.4505 C   0  0  0  0  0  0  0  0  0  0  0  0
   10.3740   -3.7142   15.4162 He  0  0  0  0  0  0  0  0  0  0  0  0
   10.2741   -3.5248   22.1577 He  0  0  0  0  0  0  0  0  0  0  0  0
   11.4006   -3.1635   15.4120 He  0  0  0  0  0  0  0  0  0  0  0  0
   13.2344   -3.3757   12.7751 He  0  0  0  0  0  0  0  0  0  0  0  0
  1  3  1  0
  1  4  3  0
  1 14  4  0
  1 15  2  0
  1 16  4  0
  1 19  4  0
  1 20  2  0
  1 23  2  0
  2  8  3  0
  2 25  4  0
  3 15  3  0
  3 17  1  0
  3 28  4  0
  4  5  3  0
  4  6  3  0
  4  8  3  0
  4  9  4  0
  4 19  1  0
  4 21  3  0
  4 22  1  0
  5  7  2  0
  6 21  4  0
  6 22  4  0
  6 30  4  0
  7 13  4  0
  7 20  3  0
  7 23  4  0
  7 25  1  0
  7 28  4  0
  8 12  4  0
  8 20  2  0
  8 26  1  0
  8 27  3  0
  9 11  3  0
  9 14  4  0
  9 22  3  0
  9 29  3  0
 10 16  4  0
 10 27  1  0
 11 14  1  0
 11 24  4  0
 12 18  4  0
 12 25  3  0
 13 15  4  0
 13 22  4  0
 13 27  1  0
 13 28  4  0
 14 27  4  0
 14 30  4  0
 15 24  4  0
 16 24  2  0
 16 26  3  0
 16 30  3  0
 17 18  4  0
 17 22  2  0
 18 25  1  0
 20 22  1  0
 21 25  3  0
 21 28  2  0
 21 30  4  0
 22 29  4  0
 26 28  4  0
 26 29  1  0
M  END
$$$$

 Created by Python create_sdf_string function

 34 37  0  0  0  0  0  0  0  0999 V2000
   11.2562   -3.0840   18.0267 C   0  0  0  0  0  0  0  0  0  0  0  0
   14.9385   -3.2431   14.0700 C   0  0  0  0  0  0  0  0  0  0  0  0
   10.5187   -3.8867   15.9015 C   0  0  0  0  0  0  0  0  0  0  0  0
   11.7216   -4.4713   24.1142 N   0  0  0  0  0  0  0  0  0  0  0  0
    2.4080   -8.5482   16.0059 C   0  0  0  0  0  0  0  0  0  0  0  0
   10.7304   -3.7205   23.7160 C   0  0  0  0  0  0  0  0  0  0  0  0
    2.3897   -7.2028   15.7093 N   0  0  0  0  0  0  0  0  0  0  0  0
    7.9148   -6.4089   17.1086 C   0  0  0  0  0  0  0  0  0  0  0  0
   10.4567   -3.6124   22.3253 C   0  0  0  0  0  0  0  0  0  0  0  0
   12.2932   -4.9883   21.8724 C   0  0  0  0  0  0  0  0  0  0  0  0
    1.3849   -9.4059   15.6670 C   0  0  0  0  0  0  0  0  0  0  0  0
   10.9155   -4.1741   20.0607 C   0  0  0  0  0  0  0  0  0  0  0  0
   12.5024   -2.5427   11.9313 O   0  0  0  0  0  0  0  0  0  0  0  0
   12.5878   -5.0749   23.2373 C   0  0  0  0  0  0  0  0  0  0  0  0
   11.5872   -3.6184   15.1248 C   0  0  0  0  0  0  0  0  0  0  0  0
    6.5564   -8.1644   18.0411 C   0  0  0  0  0  0  0  0  0  0  0  0
    0.4257   -8.9191   14.8950 C   0  0  0  0  0  0  0  0  0  0  0  0
    5.7805   -8.0911   16.9626 C   0  0  0  0  0  0  0  0  0  0  0  0
   11.4760   -3.2289   19.3311 N   0  0  0  0  0  0  0  0  0  0  0  0
    9.9733   -4.9793   19.3544 C   0  0  0  0  0  0  0  0  0  0  0  0
    9.7011   -4.8540   17.9718 C   0  0  0  0  0  0  0  0  0  0  0  0
   10.5227   -3.9275   17.3702 C   0  0  0  0  0  0  0  0  0  0  0  0
    4.4773   -8.7377   17.0048 O   0  0  0  0  0  0  0  0  0  0  0  0
    1.4116   -6.7934   14.8776 C   0  0  0  0  0  0  0  0  0  0  0  0
    3.6597   -9.1250   16.6416 C   0  0  0  0  0  0  0  0  0  0  0  0
    7.2240   -6.5908   15.9346 C   0  0  0  0  0  0  0  0  0  0  0  0
    6.1695   -7.3470   15.8816 C   0  0  0  0  0  0  0  0  0  0  0  0
    8.7586   -5.3793   17.2461 N   0  0  0  0  0  0  0  0  0  0  0  0
   13.5811   -3.4685   13.7331 C   0  0  0  0  0  0  0  0  0  0  0  0
   11.1983   -4.2991   21.4004 C   0  0  0  0  0  0  0  0  0  0  0  0
    7.6170   -7.3109   18.1215 C   0  0  0  0  0  0  0  0  0  0  0  0
   12.6525   -2.9218   14.7225 C   0  0  0  0  0  0  0  0  0  0  0  0
   13.2478   -3.4301   12.4374 C   0  0  0  0  0  0  0  0  0  0  0  0
    0.4197   -7.6109   14.5238 C   0  0  0  0  0  0  0  0  0  0  0  0
  1 19  4  0
  1 22  4  0
  2 29  1  0
  3 15  1  0
  3 22  1  0
  4  6  4  0
  4 14  4  0
  5  7  4  0
  5 11  4  0
  5 25  1  0
  6  9  4  0
  7 24  4  0
  8 26  4  0
  8 28  1  0
  8 31  4  0
  9 30  4  0
 10 14  4  0
 10 30  4  0
 11 17  4  0
 12 19  4  0
 12 20  4  0
 12 30  1  0
 13 33  1  0
 15 32  1  0
 16 18  4  0
 16 31  4  0
 17 34  4  0
 18 23  1  0
 18 27  4  0
 20 21  4  0
 21 22  4  0
 21 28  1  0
 23 25  1  0
 24 34  4  0
 26 27  4  0
 29 32  1  0
 29 33  1  0
M  END
$$$$

 Created by Python create_sdf_string function

 34 72  0  0  0  0  0  0  0  0999 V2000
   11.3232   -3.5318   18.0001 C   0  0  0  0  0  0  0  0  0  0  0  0
   14.7941   -3.6489   14.1133 C   0  0  0  0  0  0  0  0  0  0  0  0
    9.8763   -3.8574   15.6727 C   0  0  0  0  0  0  0  0  0  0  0  0
   11.5506   -4.3859   23.8121 N   0  0  0  0  0  0  0  0  0  0  0  0
    2.5380   -8.5123   15.9631 C   0  0  0  0  0  0  0  0  0  0  0  0
   10.8371   -3.6222   23.8124 C   0  0  0  0  0  0  0  0  0  0  0  0
    2.4141   -7.1652   15.7131 N   0  0  0  0  0  0  0  0  0  0  0  0
    7.9827   -6.5660   17.2131 N   0  0  0  0  0  0  0  0  0  0  0  0
   10.5568   -3.3717   22.5181 C   0  0  0  0  0  0  0  0  0  0  0  0
   12.2520   -4.9454   21.3223 C   0  0  0  0  0  0  0  0  0  0  0  0
    1.5671   -9.6050   15.8231 C   0  0  0  0  0  0  0  0  0  0  0  0
   11.5819   -4.2247   20.4265 C   0  0  0  0  0  0  0  0  0  0  0  0
   12.1183   -1.9447   11.6835 O   0  0  0  0  0  0  0  0  0  0  0  0
   12.9496   -5.5492   23.4901 C   0  0  0  0  0  0  0  0  0  0  0  0
   11.7641   -3.4525   15.4045 C   0  0  0  0  0  0  0  0  0  0  0  0
    6.7024   -8.3586   18.3331 C   0  0  0  0  0  0  0  0  0  0  0  0
   -0.0932   -9.1710   15.2753 C   0  0  0  0  0  0  0  0  0  0  0  0
    6.0777   -7.9957   16.8180 F   0  0  0  0  0  0  0  0  0  0  0  0
   11.5669   -3.4446   18.9689 F   0  0  0  0  0  0  0  0  0  0  0  0
    9.8732   -5.4415   17.7475 C   0  0  0  0  0  0  0  0  0  0  0  0
   10.1996   -4.0682   17.2693 Cl  0  0  0  0  0  0  0  0  0  0  0  0
    4.7045   -8.8865   17.0663 O   0  0  0  0  0  0  0  0  0  0  0  0
    1.7444   -6.9102   14.5508 C   0  0  0  0  0  0  0  0  0  0  0  0
    3.8603   -8.9241   16.5812 P   0  0  0  0  0  0  0  0  0  0  0  0
    7.0439   -6.8572   15.9563 C   0  0  0  0  0  0  0  0  0  0  0  0
    6.0795   -7.1109   15.2568 O   0  0  0  0  0  0  0  0  0  0  0  0
   13.6624   -3.6333   13.7991 C   0  0  0  0  0  0  0  0  0  0  0  0
   11.1390   -4.7369   21.3790 C   0  0  0  0  0  0  0  0  0  0  0  0
    7.4193   -7.0774   18.5179 F   0  0  0  0  0  0  0  0  0  0  0  0
   13.0797   -2.8742   14.7688 C   0  0  0  0  0  0  0  0  0  0  0  0
    0.4034   -7.9542   14.5952 S   0  0  0  0  0  0  0  0  0  0  0  0
    9.2936   -5.0867   19.3115 He  0  0  0  0  0  0  0  0  0  0  0  0
    8.6123   -5.2837   17.2079 He  0  0  0  0  0  0  0  0  0  0  0  0
   13.6392   -3.6719   12.2379 He  0  0  0  0  0  0  0  0  0  0  0  0
  1  9  4  0
  1 13  4  0
  1 19  4  0
  1 21  4  0
  1 28  1  0
  2  6  4  0
  2 13  1  0
  2 27  3  0
  2 30  1  0
  2 31  1  0
  3  5  1  0
  3  7  3  0
  3 15  1  0
  3 17  1  0
  3 22  1  0
  4  5  1  0
  4  6  4  0
  4 18  4  0
  4 28  2  0
  5  7  4  0
  5 11  4  0
  5 30  2  0
  6  9  4  0
  6 24  4  0
  6 26  4  0
  7 11  1  0
  7 14  2  0
  7 23  4  0
  8 13  4  0
  8 14  4  0
  8 16  2  0
  8 18  3  0
  8 22  3  0
  8 25  4  0
  8 29  4  0
  9 11  2  0
  9 28  4  0
 10 11  1  0
 10 28  4  0
 11 17  4  0
 12 20  4  0
 12 23  1  0
 12 28  1  0
 13 17  1  0
 14 17  4  0
 14 21  1  0
 14 22  4  0
 14 25  2  0
 15 17  3  0
 15 21  3  0
 15 30  1  0
 16 21  4  0
 16 29  4  0
 17 19  1  0
 17 28  4  0
 17 29  3  0
 18 21  3  0
 18 22  1  0
 18 26  4  0
 18 31  4  0
 21 26  4  0
 22 26  4  0
 23 24  1  0
 23 26  1  0
 23 27  1  0
 23 29  3  0
 23 30  1  0
 23 31  4  0
 25 26  4  0
 27 30  1  0
 28 31  2  0
 29 31  1  0
M  END
$$$$

 Created by Python create_sdf_string function

 34 37  0  0  0  0  0  0  0  0999 V2000
   11.3777   -3.2458   17.9646 C   0  0  0  0  0  0  0  0  0  0  0  0
   14.8551   -3.5415   14.1161 C   0  0  0  0  0  0  0  0  0  0  0  0
   10.3781   -3.9011   15.8630 C   0  0  0  0  0  0  0  0  0  0  0  0
   11.8023   -4.4925   24.0944 N   0  0  0  0  0  0  0  0  0  0  0  0
    2.5090   -8.5835   15.9510 C   0  0  0  0  0  0  0  0  0  0  0  0
   10.7843   -3.7053   23.6574 C   0  0  0  0  0  0  0  0  0  0  0  0
    2.5105   -7.3230   15.3809 N   0  0  0  0  0  0  0  0  0  0  0  0
    7.8436   -6.4984   17.0613 C   0  0  0  0  0  0  0  0  0  0  0  0
   10.5088   -3.6356   22.2755 C   0  0  0  0  0  0  0  0  0  0  0  0
   12.3040   -5.1114   21.8279 C   0  0  0  0  0  0  0  0  0  0  0  0
    1.4366   -9.4279   15.9273 C   0  0  0  0  0  0  0  0  0  0  0  0
   10.9320   -4.3250   20.0229 C   0  0  0  0  0  0  0  0  0  0  0  0
   12.4576   -2.3185   11.9761 O   0  0  0  0  0  0  0  0  0  0  0  0
   12.5759   -5.2090   23.2342 C   0  0  0  0  0  0  0  0  0  0  0  0
   11.7063   -3.7920   15.1535 C   0  0  0  0  0  0  0  0  0  0  0  0
    6.4695   -8.0916   18.0753 C   0  0  0  0  0  0  0  0  0  0  0  0
    0.3834   -9.0650   15.1512 C   0  0  0  0  0  0  0  0  0  0  0  0
    5.7665   -8.1184   16.9334 C   0  0  0  0  0  0  0  0  0  0  0  0
   11.5308   -3.4295   19.2581 N   0  0  0  0  0  0  0  0  0  0  0  0
    9.9476   -5.0582   19.2962 C   0  0  0  0  0  0  0  0  0  0  0  0
    9.6759   -4.9797   17.8916 C   0  0  0  0  0  0  0  0  0  0  0  0
   10.5226   -4.0143   17.3143 C   0  0  0  0  0  0  0  0  0  0  0  0
    4.5944   -8.9798   16.9035 O   0  0  0  0  0  0  0  0  0  0  0  0
    1.4415   -6.9366   14.7079 C   0  0  0  0  0  0  0  0  0  0  0  0
    3.6919   -9.1177   16.7018 C   0  0  0  0  0  0  0  0  0  0  0  0
    7.1026   -6.6034   15.8949 C   0  0  0  0  0  0  0  0  0  0  0  0
    6.1222   -7.3983   15.8246 C   0  0  0  0  0  0  0  0  0  0  0  0
    8.8423   -5.5958   17.0711 O   0  0  0  0  0  0  0  0  0  0  0  0
   13.6281   -3.4272   13.6723 C   0  0  0  0  0  0  0  0  0  0  0  0
   11.2201   -4.3730   21.3595 C   0  0  0  0  0  0  0  0  0  0  0  0
    7.5625   -7.2764   18.1237 C   0  0  0  0  0  0  0  0  0  0  0  0
   12.6547   -2.9369   14.6051 C   0  0  0  0  0  0  0  0  0  0  0  0
   13.3657   -3.2944   12.3095 C   0  0  0  0  0  0  0  0  0  0  0  0
    0.3950   -7.8179   14.5859 C   0  0  0  0  0  0  0  0  0  0  0  0
  1 19  4  0
  1 22  4  0
  2 29  1  0
  3 15  1  0
  3 22  1  0
  4  6  4  0
  4 14  4  0
  5  7  4  0
  5 11  4  0
  5 25  1  0
  6  9  4  0
  7 24  4  0
  8 26  4  0
  8 28  1  0
  8 31  4  0
  9 30  4  0
 10 14  4  0
 10 30  4  0
 11 17  4  0
 12 19  4  0
 12 20  4  0
 12 30  1  0
 13 33  1  0
 15 32  1  0
 16 18  4  0
 16 31  4  0
 17 34  4  0
 18 23  1  0
 18 27  4  0
 20 21  4  0
 21 22  4  0
 21 28  1  0
 23 25  1  0
 24 34  4  0
 26 27  4  0
 29 32  1  0
 29 33  1  0
M  END
$$$$

 Created by Python create_sdf_string function

 34 61  0  0  0  0  0  0  0  0999 V2000
   11.4185   -3.1447   17.7695 C   0  0  0  0  0  0  0  0  0  0  0  0
   10.3942   -3.9017   15.7486 C   0  0  0  0  0  0  0  0  0  0  0  0
   11.8249   -4.4765   24.1634 N   0  0  0  0  0  0  0  0  0  0  0  0
    2.5940   -8.6358   15.8799 F   0  0  0  0  0  0  0  0  0  0  0  0
   11.1483   -3.1457   23.5224 C   0  0  0  0  0  0  0  0  0  0  0  0
    2.5722   -7.1238   15.4854 N   0  0  0  0  0  0  0  0  0  0  0  0
    7.8026   -6.7022   17.3850 C   0  0  0  0  0  0  0  0  0  0  0  0
    1.3885   -9.4019   15.6110 Cl  0  0  0  0  0  0  0  0  0  0  0  0
   12.6770   -2.2537   11.8547 O   0  0  0  0  0  0  0  0  0  0  0  0
   12.5629   -5.2056   23.3767 C   0  0  0  0  0  0  0  0  0  0  0  0
   11.3406   -3.6247   15.2175 C   0  0  0  0  0  0  0  0  0  0  0  0
    0.3378   -9.0538   15.1020 C   0  0  0  0  0  0  0  0  0  0  0  0
    5.6871   -8.0264   16.7170 Br  0  0  0  0  0  0  0  0  0  0  0  0
   11.3868   -3.2055   19.4782 N   0  0  0  0  0  0  0  0  0  0  0  0
    9.8511   -4.8002   19.7374 C   0  0  0  0  0  0  0  0  0  0  0  0
   10.1569   -4.9645   17.9473 C   0  0  0  0  0  0  0  0  0  0  0  0
    4.7606   -8.8834   16.8013 O   0  0  0  0  0  0  0  0  0  0  0  0
    1.7608   -7.2619   14.7418 C   0  0  0  0  0  0  0  0  0  0  0  0
    4.0336   -9.1741   16.9082 C   0  0  0  0  0  0  0  0  0  0  0  0
    7.1979   -6.8954   15.8473 C   0  0  0  0  0  0  0  0  0  0  0  0
    6.1240   -7.5247   16.1237 C   0  0  0  0  0  0  0  0  0  0  0  0
    8.8686   -5.8436   17.3378 O   0  0  0  0  0  0  0  0  0  0  0  0
   13.9469   -3.3419   13.8121 C   0  0  0  0  0  0  0  0  0  0  0  0
   10.7337   -4.6193   21.0521 C   0  0  0  0  0  0  0  0  0  0  0  0
    8.0741   -7.0200   18.1046 C   0  0  0  0  0  0  0  0  0  0  0  0
   12.6154   -2.6586   15.0185 C   0  0  0  0  0  0  0  0  0  0  0  0
   13.1134   -2.9666   12.5999 C   0  0  0  0  0  0  0  0  0  0  0  0
    0.0368   -7.8599   14.7063 C   0  0  0  0  0  0  0  0  0  0  0  0
   14.8161   -3.0747   14.3022 He  0  0  0  0  0  0  0  0  0  0  0  0
   10.2696   -3.5085   22.0216 He  0  0  0  0  0  0  0  0  0  0  0  0
   12.7330   -4.5536   22.0423 He  0  0  0  0  0  0  0  0  0  0  0  0
   10.6924   -4.5291   20.0371 He  0  0  0  0  0  0  0  0  0  0  0  0
    6.5165   -7.8914   18.7650 He  0  0  0  0  0  0  0  0  0  0  0  0
   10.5183   -4.2177   17.0313 He  0  0  0  0  0  0  0  0  0  0  0  0
  1 15  3  0
  1 28  4  0
  2  4  2  0
  2  9  4  0
  2 11  1  0
  2 13  3  0
  2 15  3  0
  3  5  4  0
  3  8  1  0
  3 10  4  0
  3 19  4  0
  3 23  4  0
  3 25  1  0
  4  6  4  0
  4  8  4  0
  4 19  1  0
  4 23  3  0
  5  8  4  0
  5 17  4  0
  5 18  4  0
  5 20  3  0
  6 12  3  0
  6 18  4  0
  7  8  4  0
  7 11  1  0
  7 22  1  0
  7 25  4  0
  8 12  4  0
  9 13  4  0
  9 15  2  0
  9 16  4  0
  9 27  1  0
 10 18  3  0
 10 24  2  0
 12 13  3  0
 12 25  1  0
 12 27  3  0
 12 28  4  0
 13 16  3  0
 13 17  1  0
 13 21  4  0
 13 28  1  0
 14 19  1  0
 14 21  4  0
 15 16  4  0
 15 28  1  0
 16 22  1  0
 16 24  2  0
 17 19  1  0
 17 26  4  0
 17 27  4  0
 18 28  4  0
 19 22  4  0
 19 23  3  0
 20 23  1  0
 20 27  4  0
 23 26  1  0
 23 27  1  0
 24 25  4  0
 24 28  1  0
 25 27  1  0
M  END
$$$$

 Created by Python create_sdf_string function

 34 37  0  0  0  0  0  0  0  0999 V2000
   11.2797   -3.1272   17.9700 C   0  0  0  0  0  0  0  0  0  0  0  0
   14.8349   -3.0689   14.2243 O   0  0  0  0  0  0  0  0  0  0  0  0
   10.4004   -3.9838   15.8513 C   0  0  0  0  0  0  0  0  0  0  0  0
   11.8324   -4.2484   24.0650 N   0  0  0  0  0  0  0  0  0  0  0  0
    2.5151   -8.6743   15.9874 C   0  0  0  0  0  0  0  0  0  0  0  0
   10.7511   -3.5311   23.6387 C   0  0  0  0  0  0  0  0  0  0  0  0
    2.5766   -7.4039   15.4375 N   0  0  0  0  0  0  0  0  0  0  0  0
    8.0313   -6.5653   17.1420 C   0  0  0  0  0  0  0  0  0  0  0  0
   10.4510   -3.4494   22.2861 C   0  0  0  0  0  0  0  0  0  0  0  0
   12.1864   -5.0042   21.8491 C   0  0  0  0  0  0  0  0  0  0  0  0
    1.4321   -9.4767   15.8501 C   0  0  0  0  0  0  0  0  0  0  0  0
   10.8957   -4.1883   20.0331 C   0  0  0  0  0  0  0  0  0  0  0  0
   12.7198   -2.1973   12.0089 O   0  0  0  0  0  0  0  0  0  0  0  0
   12.5798   -4.9973   23.1934 C   0  0  0  0  0  0  0  0  0  0  0  0
   11.5846   -3.7776   15.0187 C   0  0  0  0  0  0  0  0  0  0  0  0
    6.4640   -8.0325   18.1866 C   0  0  0  0  0  0  0  0  0  0  0  0
    0.3809   -9.0215   15.0955 C   0  0  0  0  0  0  0  0  0  0  0  0
    5.7920   -8.1158   17.0257 C   0  0  0  0  0  0  0  0  0  0  0  0
   11.4368   -3.2207   19.2977 N   0  0  0  0  0  0  0  0  0  0  0  0
   10.0262   -5.0784   19.2752 C   0  0  0  0  0  0  0  0  0  0  0  0
    9.8203   -5.0086   17.8891 C   0  0  0  0  0  0  0  0  0  0  0  0
   10.5348   -4.0147   17.3047 C   0  0  0  0  0  0  0  0  0  0  0  0
    4.6207   -8.9624   16.9969 O   0  0  0  0  0  0  0  0  0  0  0  0
    1.5428   -6.9610   14.7412 C   0  0  0  0  0  0  0  0  0  0  0  0
    3.6974   -9.1822   16.8875 C   0  0  0  0  0  0  0  0  0  0  0  0
    7.3029   -6.6880   15.9657 C   0  0  0  0  0  0  0  0  0  0  0  0
    6.2433   -7.4391   15.8959 C   0  0  0  0  0  0  0  0  0  0  0  0
    9.1348   -5.7865   17.1163 O   0  0  0  0  0  0  0  0  0  0  0  0
   13.6715   -3.1368   13.8934 C   0  0  0  0  0  0  0  0  0  0  0  0
   11.1534   -4.2542   21.3641 C   0  0  0  0  0  0  0  0  0  0  0  0
    7.5919   -7.2663   18.2215 C   0  0  0  0  0  0  0  0  0  0  0  0
   12.6634   -2.9032   14.9574 C   0  0  0  0  0  0  0  0  0  0  0  0
   13.0934   -3.2473   12.5696 C   0  0  0  0  0  0  0  0  0  0  0  0
    0.4387   -7.7550   14.5694 C   0  0  0  0  0  0  0  0  0  0  0  0
  1 19  4  0
  1 22  4  0
  2 29  2  0
  3 15  1  0
  3 22  1  0
  4  6  4  0
  4 14  4  0
  5  7  4  0
  5 11  4  0
  5 25  1  0
  6  9  4  0
  7 24  4  0
  8 26  4  0
  8 28  1  0
  8 31  4  0
  9 30  4  0
 10 14  4  0
 10 30  4  0
 11 17  4  0
 12 19  4  0
 12 20  4  0
 12 30  1  0
 13 33  1  0
 15 32  1  0
 16 18  4  0
 16 31  4  0
 17 34  4  0
 18 23  1  0
 18 27  4  0
 20 21  4  0
 21 22  4  0
 21 28  1  0
 23 25  1  0
 24 34  4  0
 26 27  4  0
 29 32  1  0
 29 33  1  0
M  END
$$$$

 Created by Python create_sdf_string function

 34 56  0  0  0  0  0  0  0  0999 V2000
   11.4973   -3.2380   17.8553 C   0  0  0  0  0  0  0  0  0  0  0  0
   14.7451   -3.2831   14.3749 O   0  0  0  0  0  0  0  0  0  0  0  0
   10.5406   -3.9787   15.8516 C   0  0  0  0  0  0  0  0  0  0  0  0
   11.6770   -4.0443   24.0883 N   0  0  0  0  0  0  0  0  0  0  0  0
    2.8826   -8.2434   15.6141 C   0  0  0  0  0  0  0  0  0  0  0  0
   10.5820   -3.7362   23.4908 C   0  0  0  0  0  0  0  0  0  0  0  0
    2.4288   -7.1212   15.2171 N   0  0  0  0  0  0  0  0  0  0  0  0
    8.0586   -6.6556   17.1110 Cl  0  0  0  0  0  0  0  0  0  0  0  0
   10.3846   -3.5838   22.3715 S   0  0  0  0  0  0  0  0  0  0  0  0
   12.3874   -5.3932   21.5839 C   0  0  0  0  0  0  0  0  0  0  0  0
    1.4132   -9.4178   15.7798 C   0  0  0  0  0  0  0  0  0  0  0  0
   10.9056   -4.0502   19.5159 C   0  0  0  0  0  0  0  0  0  0  0  0
   12.0850   -2.3695   12.2691 C   0  0  0  0  0  0  0  0  0  0  0  0
   12.3651   -4.6859   23.2804 C   0  0  0  0  0  0  0  0  0  0  0  0
    6.4885   -8.2382   17.9265 C   0  0  0  0  0  0  0  0  0  0  0  0
    0.4603   -9.2176   15.0474 C   0  0  0  0  0  0  0  0  0  0  0  0
   11.9454   -3.4229   19.1136 N   0  0  0  0  0  0  0  0  0  0  0  0
   10.2094   -5.4131   19.0074 C   0  0  0  0  0  0  0  0  0  0  0  0
    9.5205   -5.1001   17.8172 C   0  0  0  0  0  0  0  0  0  0  0  0
    1.6140   -7.0319   14.5377 I   0  0  0  0  0  0  0  0  0  0  0  0
    3.7922   -9.1264   16.8939 C   0  0  0  0  0  0  0  0  0  0  0  0
    6.1720   -7.1036   15.8807 C   0  0  0  0  0  0  0  0  0  0  0  0
    9.1393   -5.6576   17.2612 O   0  0  0  0  0  0  0  0  0  0  0  0
   14.0862   -2.7005   13.8560 C   0  0  0  0  0  0  0  0  0  0  0  0
   10.9150   -4.1557   21.4795 C   0  0  0  0  0  0  0  0  0  0  0  0
    7.3660   -7.3353   18.2082 C   0  0  0  0  0  0  0  0  0  0  0  0
   12.8346   -3.0229   14.9230 C   0  0  0  0  0  0  0  0  0  0  0  0
   12.8754   -3.0865   12.4525 C   0  0  0  0  0  0  0  0  0  0  0  0
    0.3651   -7.5657   14.4517 C   0  0  0  0  0  0  0  0  0  0  0  0
   11.7536   -4.1388   14.9957 He  0  0  0  0  0  0  0  0  0  0  0  0
    5.6210   -8.1956   17.1613 He  0  0  0  0  0  0  0  0  0  0  0  0
   10.9179   -4.4425   17.2429 He  0  0  0  0  0  0  0  0  0  0  0  0
    4.5196   -9.0604   17.2290 He  0  0  0  0  0  0  0  0  0  0  0  0
    7.1599   -6.9666   15.9072 He  0  0  0  0  0  0  0  0  0  0  0  0
  1  4  1  0
  1 17  4  0
  1 22  1  0
  1 27  2  0
  1 29  3  0
  2  9  2  0
  2 11  4  0
  2 15  1  0
  2 18  3  0
  2 19  2  0
  2 24  2  0
  3  4  3  0
  3 19  4  0
  4  6  4  0
  4 10  3  0
  4 13  1  0
  4 14  4  0
  4 23  2  0
  4 24  2  0
  5  7  4  0
  5 11  2  0
  5 20  2  0
  5 21  1  0
  5 29  3  0
  6  9  4  0
  6 18  4  0
  6 21  2  0
  7 20  4  0
  7 22  3  0
  7 23  1  0
  7 25  1  0
  8 23  1  0
  8 26  4  0
  9 25  3  0
 10 14  4  0
 10 25  4  0
 12 17  4  0
 12 18  4  0
 12 25  1  0
 12 28  1  0
 13 26  2  0
 13 28  1  0
 14 21  2  0
 15 17  2  0
 15 26  4  0
 16 21  2  0
 16 24  2  0
 18 19  4  0
 19 22  4  0
 19 23  1  0
 20 29  1  0
 21 27  3  0
 23 28  2  0
 24 27  2  0
 24 28  1  0
 25 27  3  0
M  END
$$$$

 Created by Python create_sdf_string function

 34 37  0  0  0  0  0  0  0  0999 V2000
   11.4696   -3.3139   17.8775 C   0  0  0  0  0  0  0  0  0  0  0  0
   14.8397   -3.2088   14.2278 O   0  0  0  0  0  0  0  0  0  0  0  0
   10.5833   -4.0950   15.7590 C   0  0  0  0  0  0  0  0  0  0  0  0
   11.6415   -4.2261   24.0463 N   0  0  0  0  0  0  0  0  0  0  0  0
    2.4977   -8.5523   15.8652 C   0  0  0  0  0  0  0  0  0  0  0  0
   10.5560   -3.5373   23.5479 C   0  0  0  0  0  0  0  0  0  0  0  0
    2.5815   -7.3083   15.2584 N   0  0  0  0  0  0  0  0  0  0  0  0
    7.9953   -6.6002   17.0765 C   0  0  0  0  0  0  0  0  0  0  0  0
   10.3179   -3.6009   22.1606 C   0  0  0  0  0  0  0  0  0  0  0  0
   12.2473   -4.9789   21.8450 C   0  0  0  0  0  0  0  0  0  0  0  0
    1.3970   -9.3876   15.6818 C   0  0  0  0  0  0  0  0  0  0  0  0
   10.9508   -4.2826   19.9203 C   0  0  0  0  0  0  0  0  0  0  0  0
   12.0815   -2.3769   12.1395 C   0  0  0  0  0  0  0  0  0  0  0  0
   12.4719   -4.9453   23.2197 C   0  0  0  0  0  0  0  0  0  0  0  0
   11.7330   -3.9898   14.9493 C   0  0  0  0  0  0  0  0  0  0  0  0
    6.5090   -8.1041   18.1750 C   0  0  0  0  0  0  0  0  0  0  0  0
    0.4082   -8.9062   14.9236 C   0  0  0  0  0  0  0  0  0  0  0  0
    5.7303   -8.1584   17.0556 C   0  0  0  0  0  0  0  0  0  0  0  0
   11.6023   -3.3557   19.2173 N   0  0  0  0  0  0  0  0  0  0  0  0
   10.0572   -5.1424   19.1784 C   0  0  0  0  0  0  0  0  0  0  0  0
    9.9027   -5.0951   17.7908 C   0  0  0  0  0  0  0  0  0  0  0  0
   10.7072   -4.1554   17.1974 C   0  0  0  0  0  0  0  0  0  0  0  0
    4.5442   -8.9691   17.0470 O   0  0  0  0  0  0  0  0  0  0  0  0
    1.6042   -6.8612   14.5505 C   0  0  0  0  0  0  0  0  0  0  0  0
    3.6047   -9.0713   16.7585 C   0  0  0  0  0  0  0  0  0  0  0  0
    7.1569   -6.6522   15.9878 C   0  0  0  0  0  0  0  0  0  0  0  0
    6.1335   -7.4258   15.9411 C   0  0  0  0  0  0  0  0  0  0  0  0
    9.1191   -5.8119   17.0326 O   0  0  0  0  0  0  0  0  0  0  0  0
   13.7281   -3.0271   13.9049 C   0  0  0  0  0  0  0  0  0  0  0  0
   11.1535   -4.3298   21.2739 C   0  0  0  0  0  0  0  0  0  0  0  0
    7.6720   -7.3747   18.1427 C   0  0  0  0  0  0  0  0  0  0  0  0
   12.6903   -2.9699   14.9231 C   0  0  0  0  0  0  0  0  0  0  0  0
   13.1672   -3.1580   12.5277 C   0  0  0  0  0  0  0  0  0  0  0  0
    0.4661   -7.6222   14.3804 C   0  0  0  0  0  0  0  0  0  0  0  0
  1 19  4  0
  1 22  4  0
  2 29  2  0
  3 15  1  0
  3 22  1  0
  4  6  4  0
  4 14  4  0
  5  7  4  0
  5 11  4  0
  5 25  1  0
  6  9  4  0
  7 24  4  0
  8 26  4  0
  8 28  1  0
  8 31  4  0
  9 30  4  0
 10 14  4  0
 10 30  4  0
 11 17  4  0
 12 19  4  0
 12 20  4  0
 12 30  1  0
 13 33  1  0
 15 32  1  0
 16 18  4  0
 16 31  4  0
 17 34  4  0
 18 23  1  0
 18 27  4  0
 20 21  4  0
 21 22  4  0
 21 28  1  0
 23 25  1  0
 24 34  4  0
 26 27  4  0
 29 32  1  0
 29 33  1  0
M  END
$$$$

 Created by Python create_sdf_string function

 34 70  0  0  0  0  0  0  0  0999 V2000
   11.6557   -3.5229   17.6121 C   0  0  0  0  0  0  0  0  0  0  0  0
   11.4569   -4.2953   23.8373 N   0  0  0  0  0  0  0  0  0  0  0  0
    2.2614   -8.7597   15.7017 C   0  0  0  0  0  0  0  0  0  0  0  0
   10.6731   -3.4369   23.5149 C   0  0  0  0  0  0  0  0  0  0  0  0
    2.4913   -7.0542   15.1742 P   0  0  0  0  0  0  0  0  0  0  0  0
    7.7640   -6.8831   17.2513 C   0  0  0  0  0  0  0  0  0  0  0  0
   10.0326   -3.3830   22.2311 C   0  0  0  0  0  0  0  0  0  0  0  0
   12.5358   -4.8976   21.9303 C   0  0  0  0  0  0  0  0  0  0  0  0
    1.3715   -9.7989   15.7761 C   0  0  0  0  0  0  0  0  0  0  0  0
   10.9964   -4.0794   19.9045 C   0  0  0  0  0  0  0  0  0  0  0  0
   11.8325   -2.3095   12.0957 C   0  0  0  0  0  0  0  0  0  0  0  0
   12.5014   -4.9299   23.2483 C   0  0  0  0  0  0  0  0  0  0  0  0
   11.6584   -3.7856   15.1757 C   0  0  0  0  0  0  0  0  0  0  0  0
    6.4759   -8.0452   17.8920 C   0  0  0  0  0  0  0  0  0  0  0  0
    0.5147   -9.1385   15.2277 C   0  0  0  0  0  0  0  0  0  0  0  0
    5.7687   -7.9792   17.2130 C   0  0  0  0  0  0  0  0  0  0  0  0
   11.3717   -3.5430   18.9684 P   0  0  0  0  0  0  0  0  0  0  0  0
   10.4641   -5.1861   19.4077 C   0  0  0  0  0  0  0  0  0  0  0  0
    9.7360   -5.0297   17.6384 C   0  0  0  0  0  0  0  0  0  0  0  0
   10.5401   -4.2006   17.1458 C   0  0  0  0  0  0  0  0  0  0  0  0
    4.6167   -8.7492   16.7814 O   0  0  0  0  0  0  0  0  0  0  0  0
    1.5235   -6.8566   14.8775 C   0  0  0  0  0  0  0  0  0  0  0  0
    3.4543   -9.1720   16.4187 C   0  0  0  0  0  0  0  0  0  0  0  0
    6.8174   -6.6199   15.7148 C   0  0  0  0  0  0  0  0  0  0  0  0
    6.6038   -7.5071   16.1287 F   0  0  0  0  0  0  0  0  0  0  0  0
   13.5353   -2.9997   14.3000 C   0  0  0  0  0  0  0  0  0  0  0  0
   11.3119   -4.2872   21.2842 C   0  0  0  0  0  0  0  0  0  0  0  0
    7.3312   -7.2501   17.8691 C   0  0  0  0  0  0  0  0  0  0  0  0
   12.5308   -2.9502   14.8130 C   0  0  0  0  0  0  0  0  0  0  0  0
   13.4535   -3.2163   12.6648 C   0  0  0  0  0  0  0  0  0  0  0  0
    0.5953   -7.4144   14.7845 C   0  0  0  0  0  0  0  0  0  0  0  0
   15.0862   -3.1019   14.3188 He  0  0  0  0  0  0  0  0  0  0  0  0
   10.5051   -4.3129   15.7550 He  0  0  0  0  0  0  0  0  0  0  0  0
    9.0268   -6.2548   16.7527 He  0  0  0  0  0  0  0  0  0  0  0  0
  1  4  1  0
  1  9  1  0
  1 17  4  0
  1 20  4  0
  1 21  1  0
  2  4  4  0
  2  9  1  0
  2 12  4  0
  2 22  4  0
  2 25  4  0
  3  5  4  0
  3  9  4  0
  3 11  2  0
  4  7  4  0
  4 10  1  0
  4 31  3  0
  5 11  3  0
  5 22  4  0
  6 28  4  0
  6 29  1  0
  7 12  2  0
  7 17  2  0
  7 27  4  0
  7 31  1  0
  8 12  4  0
  8 14  2  0
  8 27  4  0
  9 10  1  0
  9 11  3  0
  9 12  1  0
  9 15  4  0
  9 17  2  0
  9 24  4  0
 10 15  4  0
 10 17  2  0
 10 27  1  0
 10 29  2  0
 11 20  3  0
 11 30  1  0
 12 18  4  0
 12 31  4  0
 13 14  1  0
 13 17  3  0
 13 19  3  0
 13 24  3  0
 13 26  2  0
 13 29  1  0
 14 16  4  0
 14 17  2  0
 14 22  1  0
 14 28  4  0
 15 31  4  0
 16 18  1  0
 16 24  1  0
 16 25  4  0
 17 22  3  0
 18 19  4  0
 18 22  4  0
 19 20  4  0
 20 25  4  0
 21 23  1  0
 21 28  1  0
 22 31  4  0
 24 25  4  0
 25 30  2  0
 25 31  1  0
 26 29  1  0
 26 30  1  0
 27 28  4  0
 27 30  1  0
M  END
$$$$

 Created by Python create_sdf_string function

 34 37  0  0  0  0  0  0  0  0999 V2000
   11.3902   -3.2945   17.7542 C   0  0  0  0  0  0  0  0  0  0  0  0
   14.9095   -3.0256   14.3831 O   0  0  0  0  0  0  0  0  0  0  0  0
   10.5160   -4.2485   15.7368 O   0  0  0  0  0  0  0  0  0  0  0  0
   11.6123   -4.2386   24.0122 N   0  0  0  0  0  0  0  0  0  0  0  0
    2.4758   -8.6738   15.8258 C   0  0  0  0  0  0  0  0  0  0  0  0
   10.5636   -3.5348   23.4982 C   0  0  0  0  0  0  0  0  0  0  0  0
    2.5148   -7.3396   15.3737 C   0  0  0  0  0  0  0  0  0  0  0  0
    7.9587   -6.6802   17.0373 C   0  0  0  0  0  0  0  0  0  0  0  0
   10.3587   -3.5044   22.1031 C   0  0  0  0  0  0  0  0  0  0  0  0
   12.2745   -4.9158   21.8062 C   0  0  0  0  0  0  0  0  0  0  0  0
    1.3503   -9.4468   15.6862 C   0  0  0  0  0  0  0  0  0  0  0  0
   10.9752   -4.2742   19.8718 C   0  0  0  0  0  0  0  0  0  0  0  0
   12.1417   -2.4455   12.1700 C   0  0  0  0  0  0  0  0  0  0  0  0
   12.4801   -4.9174   23.2058 C   0  0  0  0  0  0  0  0  0  0  0  0
   11.6111   -3.9159   14.9005 C   0  0  0  0  0  0  0  0  0  0  0  0
    6.3662   -8.0790   18.0758 C   0  0  0  0  0  0  0  0  0  0  0  0
    0.2709   -8.8503   15.0869 C   0  0  0  0  0  0  0  0  0  0  0  0
    5.7037   -8.1093   16.9091 C   0  0  0  0  0  0  0  0  0  0  0  0
   11.5324   -3.3248   19.0974 N   0  0  0  0  0  0  0  0  0  0  0  0
   10.1434   -5.1705   19.1772 C   0  0  0  0  0  0  0  0  0  0  0  0
    9.9406   -5.1879   17.7892 C   0  0  0  0  0  0  0  0  0  0  0  0
   10.6776   -4.2329   17.1308 C   0  0  0  0  0  0  0  0  0  0  0  0
    4.5194   -8.9182   16.9087 O   0  0  0  0  0  0  0  0  0  0  0  0
    1.4590   -6.8333   14.7584 C   0  0  0  0  0  0  0  0  0  0  0  0
    3.6730   -9.3122   16.4616 C   0  0  0  0  0  0  0  0  0  0  0  0
    7.2293   -6.7195   15.8475 C   0  0  0  0  0  0  0  0  0  0  0  0
    6.1395   -7.4201   15.8082 C   0  0  0  0  0  0  0  0  0  0  0  0
    9.1561   -5.9798   17.0370 O   0  0  0  0  0  0  0  0  0  0  0  0
   13.7123   -2.9786   14.0022 C   0  0  0  0  0  0  0  0  0  0  0  0
   11.1930   -4.2634   21.2323 C   0  0  0  0  0  0  0  0  0  0  0  0
    7.4827   -7.3588   18.1282 C   0  0  0  0  0  0  0  0  0  0  0  0
   12.6026   -2.8844   14.8869 C   0  0  0  0  0  0  0  0  0  0  0  0
   13.3652   -3.1349   12.6000 C   0  0  0  0  0  0  0  0  0  0  0  0
    0.3377   -7.5719   14.6688 C   0  0  0  0  0  0  0  0  0  0  0  0
  1 19  4  0
  1 22  4  0
  2 29  2  0
  3 15  1  0
  3 22  1  0
  4  6  4  0
  4 14  4  0
  5  7  4  0
  5 11  4  0
  5 25  1  0
  6  9  4  0
  7 24  4  0
  8 26  4  0
  8 28  1  0
  8 31  4  0
  9 30  4  0
 10 14  4  0
 10 30  4  0
 11 17  4  0
 12 19  4  0
 12 20  4  0
 12 30  1  0
 13 33  1  0
 15 32  1  0
 16 18  4  0
 16 31  4  0
 17 34  4  0
 18 23  1  0
 18 27  4  0
 20 21  4  0
 21 22  4  0
 21 28  1  0
 23 25  1  0
 24 34  4  0
 26 27  4  0
 29 32  1  0
 29 33  1  0
M  END
$$$$

 Created by Python create_sdf_string function

 34 69  0  0  0  0  0  0  0  0999 V2000
   11.3021   -3.2592   17.5550 C   0  0  0  0  0  0  0  0  0  0  0  0
   14.8790   -3.0994   14.5127 O   0  0  0  0  0  0  0  0  0  0  0  0
   12.1042   -4.2008   24.1682 N   0  0  0  0  0  0  0  0  0  0  0  0
    2.3078   -8.5184   15.5973 C   0  0  0  0  0  0  0  0  0  0  0  0
   10.2585   -3.7360   23.7029 C   0  0  0  0  0  0  0  0  0  0  0  0
    2.3796   -7.1043   15.2553 C   0  0  0  0  0  0  0  0  0  0  0  0
    7.8097   -6.8693   16.9381 C   0  0  0  0  0  0  0  0  0  0  0  0
   10.0078   -3.6902   22.3359 C   0  0  0  0  0  0  0  0  0  0  0  0
   12.5497   -5.2069   22.0340 C   0  0  0  0  0  0  0  0  0  0  0  0
   11.2113   -4.1433   19.7025 C   0  0  0  0  0  0  0  0  0  0  0  0
   12.3064   -2.8383   12.3282 N   0  0  0  0  0  0  0  0  0  0  0  0
   12.5370   -5.0141   23.2730 C   0  0  0  0  0  0  0  0  0  0  0  0
   11.8086   -3.9935   14.8673 C   0  0  0  0  0  0  0  0  0  0  0  0
    6.4301   -7.9296   17.7581 N   0  0  0  0  0  0  0  0  0  0  0  0
    0.5758   -8.7721   15.3143 C   0  0  0  0  0  0  0  0  0  0  0  0
    5.5215   -8.0183   16.6861 C   0  0  0  0  0  0  0  0  0  0  0  0
   11.2927   -3.2781   18.9016 N   0  0  0  0  0  0  0  0  0  0  0  0
   10.2732   -5.5562   19.0481 C   0  0  0  0  0  0  0  0  0  0  0  0
   10.7756   -4.1039   16.9145 C   0  0  0  0  0  0  0  0  0  0  0  0
    4.2101   -8.7952   16.6782 O   0  0  0  0  0  0  0  0  0  0  0  0
    1.5568   -6.8464   14.5112 C   0  0  0  0  0  0  0  0  0  0  0  0
    3.6486   -9.4895   16.3281 C   0  0  0  0  0  0  0  0  0  0  0  0
    7.4644   -6.5049   16.0655 C   0  0  0  0  0  0  0  0  0  0  0  0
    6.2008   -7.4640   15.5059 C   0  0  0  0  0  0  0  0  0  0  0  0
    9.4326   -6.0208   17.3685 O   0  0  0  0  0  0  0  0  0  0  0  0
   13.6872   -3.0317   13.9077 C   0  0  0  0  0  0  0  0  0  0  0  0
   11.0190   -3.9545   20.9655 C   0  0  0  0  0  0  0  0  0  0  0  0
    7.4824   -7.1941   17.9377 N   0  0  0  0  0  0  0  0  0  0  0  0
   12.1918   -3.1956   14.5792 C   0  0  0  0  0  0  0  0  0  0  0  0
   13.2223   -3.1302   12.5087 C   0  0  0  0  0  0  0  0  0  0  0  0
    0.7261   -7.8526   14.6650 C   0  0  0  0  0  0  0  0  0  0  0  0
   10.5497   -4.1047   15.5635 He  0  0  0  0  0  0  0  0  0  0  0  0
    1.3542   -9.4380   15.4936 He  0  0  0  0  0  0  0  0  0  0  0  0
    9.7659   -4.9430   17.6768 He  0  0  0  0  0  0  0  0  0  0  0  0
  1  9  4  0
  1 13  2  0
  1 17  4  0
  1 19  4  0
  1 29  1  0
  2  7  1  0
  2 16  4  0
  2 24  1  0
  2 25  1  0
  2 26  2  0
  2 28  2  0
  3  5  4  0
  3 12  4  0
  3 14  3  0
  4  6  4  0
  4 22  1  0
  4 29  3  0
  4 30  2  0
  5  8  4  0
  5 10  3  0
  5 11  1  0
  5 29  4  0
  6 21  4  0
  6 31  3  0
  7 23  4  0
  7 25  1  0
  7 28  4  0
  8 21  4  0
  8 23  3  0
  8 25  4  0
  8 27  4  0
  9 10  3  0
  9 12  4  0
  9 27  4  0
 10 12  2  0
 10 17  4  0
 10 18  4  0
 10 22  1  0
 10 27  2  0
 11 27  1  0
 11 29  4  0
 11 30  1  0
 12 21  2  0
 12 25  1  0
 13 16  1  0
 13 24  2  0
 13 25  2  0
 13 29  1  0
 14 16  4  0
 14 24  4  0
 14 28  4  0
 15 21  1  0
 15 26  1  0
 15 30  3  0
 15 31  4  0
 16 20  1  0
 16 24  4  0
 17 20  2  0
 17 24  3  0
 19 26  4  0
 19 29  2  0
 20 22  1  0
 20 30  2  0
 21 31  4  0
 23 24  4  0
 23 30  2  0
 25 28  2  0
 26 29  1  0
 26 30  1  0
M  END
$$$$

 Created by Python create_sdf_string function

 34 37  0  0  0  0  0  0  0  0999 V2000
   11.2069   -3.1644   17.7610 C   0  0  0  0  0  0  0  0  0  0  0  0
   14.7445   -3.0880   14.4270 O   0  0  0  0  0  0  0  0  0  0  0  0
   10.5340   -4.2133   15.6740 O   0  0  0  0  0  0  0  0  0  0  0  0
   11.6783   -4.3295   23.9903 N   0  0  0  0  0  0  0  0  0  0  0  0
    2.4838   -8.6466   15.6972 C   0  0  0  0  0  0  0  0  0  0  0  0
   10.5786   -3.6578   23.5197 C   0  0  0  0  0  0  0  0  0  0  0  0
    2.5403   -7.3206   15.1659 C   0  0  0  0  0  0  0  0  0  0  0  0
    8.0664   -6.6605   17.0274 C   0  0  0  0  0  0  0  0  0  0  0  0
   10.3534   -3.6501   22.1346 C   0  0  0  0  0  0  0  0  0  0  0  0
   12.3049   -4.9652   21.7581 C   0  0  0  0  0  0  0  0  0  0  0  0
    1.3305   -9.3517   15.6449 C   0  0  0  0  0  0  0  0  0  0  0  0
   10.9521   -4.2526   19.8565 C   0  0  0  0  0  0  0  0  0  0  0  0
   12.2191   -2.7490   12.0619 N   0  0  0  0  0  0  0  0  0  0  0  0
   12.5732   -4.9678   23.1607 C   0  0  0  0  0  0  0  0  0  0  0  0
   11.6699   -4.0937   14.8892 C   0  0  0  0  0  0  0  0  0  0  0  0
    6.3625   -7.9662   17.9336 C   0  0  0  0  0  0  0  0  0  0  0  0
    0.2812   -8.8033   14.9726 C   0  0  0  0  0  0  0  0  0  0  0  0
    5.7103   -8.0147   16.7845 C   0  0  0  0  0  0  0  0  0  0  0  0
   11.3850   -3.2060   19.1078 N   0  0  0  0  0  0  0  0  0  0  0  0
   10.1930   -5.2365   19.1028 C   0  0  0  0  0  0  0  0  0  0  0  0
    9.9933   -5.1867   17.7694 C   0  0  0  0  0  0  0  0  0  0  0  0
   10.6178   -4.1790   17.0858 C   0  0  0  0  0  0  0  0  0  0  0  0
    4.5098   -8.7938   16.7632 O   0  0  0  0  0  0  0  0  0  0  0  0
    1.5063   -6.8056   14.5805 C   0  0  0  0  0  0  0  0  0  0  0  0
    3.7280   -9.3036   16.2285 C   0  0  0  0  0  0  0  0  0  0  0  0
    7.3988   -6.6666   15.8017 C   0  0  0  0  0  0  0  0  0  0  0  0
    6.2388   -7.3344   15.6659 C   0  0  0  0  0  0  0  0  0  0  0  0
    9.2515   -6.0671   17.0929 O   0  0  0  0  0  0  0  0  0  0  0  0
   13.7224   -3.0589   13.8895 C   0  0  0  0  0  0  0  0  0  0  0  0
   11.1876   -4.3162   21.1961 C   0  0  0  0  0  0  0  0  0  0  0  0
    7.4600   -7.3396   18.0449 C   0  0  0  0  0  0  0  0  0  0  0  0
   12.4447   -2.9771   14.6152 C   0  0  0  0  0  0  0  0  0  0  0  0
   13.4590   -3.1809   12.4068 C   0  0  0  0  0  0  0  0  0  0  0  0
    0.3537   -7.5321   14.4951 C   0  0  0  0  0  0  0  0  0  0  0  0
  1 19  4  0
  1 22  4  0
  2 29  2  0
  3 15  1  0
  3 22  1  0
  4  6  4  0
  4 14  4  0
  5  7  4  0
  5 11  4  0
  5 25  1  0
  6  9  4  0
  7 24  4  0
  8 26  4  0
  8 28  1  0
  8 31  4  0
  9 30  4  0
 10 14  4  0
 10 30  4  0
 11 17  4  0
 12 19  4  0
 12 20  4  0
 12 30  1  0
 13 33  1  0
 15 32  1  0
 16 18  4  0
 16 31  4  0
 17 34  4  0
 18 23  1  0
 18 27  4  0
 20 21  4  0
 21 22  4  0
 21 28  1  0
 23 25  1  0
 24 34  4  0
 26 27  4  0
 29 32  1  0
 29 33  1  0
M  END
$$$$

 Created by Python create_sdf_string function

 34 72  0  0  0  0  0  0  0  0999 V2000
   11.0152   -3.2552   17.9003 C   0  0  0  0  0  0  0  0  0  0  0  0
   14.6332   -2.8549   14.2418 O   0  0  0  0  0  0  0  0  0  0  0  0
   10.8861   -4.1492   15.9295 O   0  0  0  0  0  0  0  0  0  0  0  0
   11.7386   -4.0570   23.8044 C   0  0  0  0  0  0  0  0  0  0  0  0
    2.4721   -8.2507   15.8022 C   0  0  0  0  0  0  0  0  0  0  0  0
    2.4974   -7.0627   15.1355 P   0  0  0  0  0  0  0  0  0  0  0  0
    7.8546   -6.4651   17.0559 C   0  0  0  0  0  0  0  0  0  0  0  0
   10.2803   -3.4519   22.0935 C   0  0  0  0  0  0  0  0  0  0  0  0
   12.3181   -5.2838   21.9006 C   0  0  0  0  0  0  0  0  0  0  0  0
    1.1416   -9.7042   15.9200 C   0  0  0  0  0  0  0  0  0  0  0  0
   11.2696   -4.3245   19.8166 C   0  0  0  0  0  0  0  0  0  0  0  0
   12.3509   -2.8624   12.1507 N   0  0  0  0  0  0  0  0  0  0  0  0
   12.8275   -4.5833   23.2113 C   0  0  0  0  0  0  0  0  0  0  0  0
   11.5061   -4.0386   14.8937 C   0  0  0  0  0  0  0  0  0  0  0  0
    6.3804   -7.5458   17.9631 C   0  0  0  0  0  0  0  0  0  0  0  0
    5.4244   -7.7172   16.9729 C   0  0  0  0  0  0  0  0  0  0  0  0
   11.3995   -3.3648   19.1256 N   0  0  0  0  0  0  0  0  0  0  0  0
   10.0529   -5.3991   18.9216 C   0  0  0  0  0  0  0  0  0  0  0  0
    9.8337   -5.4238   17.8351 C   0  0  0  0  0  0  0  0  0  0  0  0
   10.7725   -4.3788   16.8590 C   0  0  0  0  0  0  0  0  0  0  0  0
    4.5291   -8.9345   17.2028 O   0  0  0  0  0  0  0  0  0  0  0  0
    3.8869   -9.5316   16.3341 P   0  0  0  0  0  0  0  0  0  0  0  0
    7.5418   -6.1802   15.5541 C   0  0  0  0  0  0  0  0  0  0  0  0
    6.2575   -7.1760   15.5301 C   0  0  0  0  0  0  0  0  0  0  0  0
    9.2197   -6.2437   16.9515 O   0  0  0  0  0  0  0  0  0  0  0  0
   13.6827   -3.2962   13.6012 C   0  0  0  0  0  0  0  0  0  0  0  0
   11.1926   -4.3003   21.3625 C   0  0  0  0  0  0  0  0  0  0  0  0
    7.5586   -7.4228   18.2612 C   0  0  0  0  0  0  0  0  0  0  0  0
   12.6558   -2.9746   14.6377 C   0  0  0  0  0  0  0  0  0  0  0  0
   13.2832   -3.2253   12.3016 C   0  0  0  0  0  0  0  0  0  0  0  0
    0.4077   -7.3391   14.5674 O   0  0  0  0  0  0  0  0  0  0  0  0
   10.5661   -3.6137   23.3960 He  0  0  0  0  0  0  0  0  0  0  0  0
    0.3301   -8.6292   14.8865 He  0  0  0  0  0  0  0  0  0  0  0  0
    1.6422   -6.6891   14.6274 He  0  0  0  0  0  0  0  0  0  0  0  0
  1  2  4  0
  1 17  4  0
  1 20  4  0
  1 28  1  0
  1 31  4  0
  2  4  3  0
  2 20  1  0
  2 22  4  0
  2 26  2  0
  3  4  1  0
  3 14  1  0
  3 20  1  0
  4  7  1  0
  4 10  3  0
  4 13  4  0
  4 24  3  0
  5  6  4  0
  5  7  2  0
  5 10  4  0
  5 11  3  0
  5 21  2  0
  5 26  2  0
  6 14  4  0
  6 24  3  0
  6 31  2  0
  7 11  3  0
  7 25  1  0
  7 28  4  0
  7 29  4  0
  8 27  4  0
  8 29  1  0
  8 31  2  0
  9 13  4  0
  9 23  2  0
  9 27  4  0
 11 14  2  0
 11 17  4  0
 11 18  4  0
 11 19  4  0
 11 27  4  0
 11 30  1  0
 12 18  4  0
 12 23  2  0
 12 26  2  0
 12 30  1  0
 13 28  3  0
 14 19  3  0
 14 21  1  0
 14 28  2  0
 14 29  1  0
 15 16  4  0
 15 25  4  0
 15 28  1  0
 16 19  2  0
 16 20  1  0
 16 21  1  0
 16 23  2  0
 16 24  4  0
 17 21  1  0
 17 24  4  0
 17 31  2  0
 18 19  4  0
 19 20  4  0
 19 25  1  0
 21 22  1  0
 22 30  3  0
 23 24  4  0
 24 31  3  0
 25 30  2  0
 26 27  2  0
 26 29  4  0
 28 31  4  0
M  END
$$$$

 Created by Python create_sdf_string function

 34 37  0  0  0  0  0  0  0  0999 V2000
   11.2273   -3.2351   17.7765 C   0  0  0  0  0  0  0  0  0  0  0  0
   14.8325   -2.9429   14.1053 O   0  0  0  0  0  0  0  0  0  0  0  0
   10.6956   -4.2910   15.7169 O   0  0  0  0  0  0  0  0  0  0  0  0
   11.7889   -4.0822   23.9426 C   0  0  0  0  0  0  0  0  0  0  0  0
    2.5241   -8.5408   15.7273 C   0  0  0  0  0  0  0  0  0  0  0  0
   10.6799   -3.4604   23.4423 C   0  0  0  0  0  0  0  0  0  0  0  0
    2.6037   -7.1977   15.2506 C   0  0  0  0  0  0  0  0  0  0  0  0
    8.0613   -6.5928   16.9559 C   0  0  0  0  0  0  0  0  0  0  0  0
   10.3537   -3.6286   22.0774 C   0  0  0  0  0  0  0  0  0  0  0  0
   12.3181   -4.9426   21.7544 C   0  0  0  0  0  0  0  0  0  0  0  0
    1.3728   -9.2642   15.6679 C   0  0  0  0  0  0  0  0  0  0  0  0
   10.9490   -4.3465   19.8486 C   0  0  0  0  0  0  0  0  0  0  0  0
   12.3069   -2.8556   12.0592 N   0  0  0  0  0  0  0  0  0  0  0  0
   12.6103   -4.8413   23.1488 C   0  0  0  0  0  0  0  0  0  0  0  0
   11.6130   -3.9689   14.9109 C   0  0  0  0  0  0  0  0  0  0  0  0
    6.3549   -7.8093   18.0581 C   0  0  0  0  0  0  0  0  0  0  0  0
    0.3053   -8.6523   15.0211 C   0  0  0  0  0  0  0  0  0  0  0  0
    5.6610   -7.9074   16.9070 C   0  0  0  0  0  0  0  0  0  0  0  0
   11.3219   -3.2400   19.1455 N   0  0  0  0  0  0  0  0  0  0  0  0
   10.2708   -5.3439   19.0995 C   0  0  0  0  0  0  0  0  0  0  0  0
   10.0456   -5.2620   17.7337 C   0  0  0  0  0  0  0  0  0  0  0  0
   10.6894   -4.2503   17.1160 C   0  0  0  0  0  0  0  0  0  0  0  0
    4.4738   -8.7352   16.9419 O   0  0  0  0  0  0  0  0  0  0  0  0
    1.5814   -6.7079   14.6039 C   0  0  0  0  0  0  0  0  0  0  0  0
    3.7716   -9.2561   16.3091 C   0  0  0  0  0  0  0  0  0  0  0  0
    7.2859   -6.5752   15.7996 C   0  0  0  0  0  0  0  0  0  0  0  0
    6.1077   -7.2150   15.7626 C   0  0  0  0  0  0  0  0  0  0  0  0
    9.3151   -6.0891   16.9579 O   0  0  0  0  0  0  0  0  0  0  0  0
   13.7192   -3.0779   13.7258 C   0  0  0  0  0  0  0  0  0  0  0  0
   11.1850   -4.3451   21.1937 C   0  0  0  0  0  0  0  0  0  0  0  0
    7.5251   -7.1541   18.0536 C   0  0  0  0  0  0  0  0  0  0  0  0
   12.5690   -3.0254   14.6603 C   0  0  0  0  0  0  0  0  0  0  0  0
   13.4573   -3.3197   12.2556 C   0  0  0  0  0  0  0  0  0  0  0  0
    0.4303   -7.4195   14.5127 C   0  0  0  0  0  0  0  0  0  0  0  0
  1 19  4  0
  1 22  4  0
  2 29  2  0
  3 15  1  0
  3 22  1  0
  4  6  4  0
  4 14  4  0
  5  7  4  0
  5 11  4  0
  5 25  1  0
  6  9  4  0
  7 24  4  0
  8 26  4  0
  8 28  1  0
  8 31  4  0
  9 30  4  0
 10 14  4  0
 10 30  4  0
 11 17  4  0
 12 19  4  0
 12 20  4  0
 12 30  1  0
 13 33  1  0
 15 32  1  0
 16 18  4  0
 16 31  4  0
 17 34  4  0
 18 23  1  0
 18 27  4  0
 20 21  4  0
 21 22  4  0
 21 28  1  0
 23 25  1  0
 24 34  4  0
 26 27  4  0
 29 32  1  0
 29 33  1  0
M  END
$$$$

 Created by Python create_sdf_string function

 34 72  0  0  0  0  0  0  0  0999 V2000
   11.4148   -2.9979   17.4987 C   0  0  0  0  0  0  0  0  0  0  0  0
   14.7552   -2.8785   14.1838 O   0  0  0  0  0  0  0  0  0  0  0  0
   10.8654   -4.1447   15.3804 O   0  0  0  0  0  0  0  0  0  0  0  0
   11.8470   -3.7471   23.9241 C   0  0  0  0  0  0  0  0  0  0  0  0
    2.2241   -8.5079   15.6598 C   0  0  0  0  0  0  0  0  0  0  0  0
   10.7423   -3.3034   23.4888 Cl  0  0  0  0  0  0  0  0  0  0  0  0
    7.9338   -6.4217   17.1027 C   0  0  0  0  0  0  0  0  0  0  0  0
   10.5333   -3.3977   22.0442 C   0  0  0  0  0  0  0  0  0  0  0  0
   12.3172   -4.9621   21.9785 C   0  0  0  0  0  0  0  0  0  0  0  0
    1.3522   -9.0318   15.6094 C   0  0  0  0  0  0  0  0  0  0  0  0
   10.9839   -4.6179   19.7949 C   0  0  0  0  0  0  0  0  0  0  0  0
   12.1475   -3.2927   12.2954 N   0  0  0  0  0  0  0  0  0  0  0  0
   12.9222   -5.0418   22.8287 C   0  0  0  0  0  0  0  0  0  0  0  0
   11.5087   -3.7463   14.9152 C   0  0  0  0  0  0  0  0  0  0  0  0
    6.5607   -7.7356   17.9497 C   0  0  0  0  0  0  0  0  0  0  0  0
   -0.0514   -8.5566   14.7767 C   0  0  0  0  0  0  0  0  0  0  0  0
    5.5419   -7.8801   16.7185 C   0  0  0  0  0  0  0  0  0  0  0  0
   11.4681   -3.2268   19.0028 N   0  0  0  0  0  0  0  0  0  0  0  0
   10.1108   -5.4445   19.0859 C   0  0  0  0  0  0  0  0  0  0  0  0
    9.7536   -5.0932   17.8510 C   0  0  0  0  0  0  0  0  0  0  0  0
   10.8165   -3.9376   16.9440 C   0  0  0  0  0  0  0  0  0  0  0  0
    4.4434   -8.8825   17.0595 O   0  0  0  0  0  0  0  0  0  0  0  0
    1.7531   -6.5555   14.8083 C   0  0  0  0  0  0  0  0  0  0  0  0
    3.9354   -9.3140   16.4337 C   0  0  0  0  0  0  0  0  0  0  0  0
    7.3321   -6.4790   16.0199 C   0  0  0  0  0  0  0  0  0  0  0  0
    5.7109   -7.2608   15.5652 C   0  0  0  0  0  0  0  0  0  0  0  0
    9.3542   -6.3585   16.8717 O   0  0  0  0  0  0  0  0  0  0  0  0
   13.7457   -3.1373   13.8256 O   0  0  0  0  0  0  0  0  0  0  0  0
   11.2578   -4.4188   21.2212 C   0  0  0  0  0  0  0  0  0  0  0  0
    7.4443   -7.1332   17.8857 C   0  0  0  0  0  0  0  0  0  0  0  0
   12.4273   -3.1991   15.0170 C   0  0  0  0  0  0  0  0  0  0  0  0
   13.5882   -3.6139   11.9858 C   0  0  0  0  0  0  0  0  0  0  0  0
    0.7298   -7.5626   14.3961 C   0  0  0  0  0  0  0  0  0  0  0  0
    2.5972   -6.9621   15.3266 He  0  0  0  0  0  0  0  0  0  0  0  0
  1 18  4  0
  1 21  4  0
  2  5  4  0
  2 10  3  0
  2 11  4  0
  2 19  2  0
  2 20  2  0
  2 28  2  0
  3  4  2  0
  3  7  4  0
  3 14  2  0
  3 23  2  0
  3 30  3  0
  4  6  4  0
  4  7  4  0
  4 12  1  0
  4 13  2  0
  5 10  4  0
  5 19  4  0
  5 24  1  0
  6  8  4  0
  6 24  2  0
  6 33  2  0
  7  8  4  0
  7 22  1  0
  7 27  1  0
  7 30  4  0
  8 11  3  0
  8 22  3  0
  8 29  4  0
  9 13  4  0
  9 17  4  0
  9 29  4  0
  9 32  3  0
 10 16  4  0
 10 22  1  0
 11 13  2  0
 11 18  4  0
 11 19  2  0
 11 29  1  0
 13 17  2  0
 13 26  2  0
 14 31  1  0
 15 16  1  0
 15 17  4  0
 15 26  4  0
 15 33  3  0
 16 17  3  0
 16 33  4  0
 17 26  4  0
 17 32  1  0
 18 21  1  0
 19 20  4  0
 19 22  3  0
 19 26  2  0
 19 32  1  0
 20 21  4  0
 20 27  1  0
 20 28  2  0
 20 30  2  0
 20 31  2  0
 21 29  4  0
 22 24  1  0
 23 33  4  0
 25 26  4  0
 25 27  2  0
 26 29  3  0
 26 31  4  0
 27 29  3  0
 28 31  1  0
 28 32  1  0
 29 30  3  0
M  END
$$$$

 Created by Python create_sdf_string function

 34 37  0  0  0  0  0  0  0  0999 V2000
   11.2761   -3.1767   17.7314 C   0  0  0  0  0  0  0  0  0  0  0  0
   14.8877   -2.8456   14.1245 O   0  0  0  0  0  0  0  0  0  0  0  0
   10.6674   -4.2004   15.6599 O   0  0  0  0  0  0  0  0  0  0  0  0
   11.9301   -4.0064   23.8937 C   0  0  0  0  0  0  0  0  0  0  0  0
    2.5043   -8.4718   15.7293 C   0  0  0  0  0  0  0  0  0  0  0  0
   10.8392   -3.3354   23.4174 C   0  0  0  0  0  0  0  0  0  0  0  0
    2.5794   -7.1222   15.3146 C   0  0  0  0  0  0  0  0  0  0  0  0
    8.0224   -6.5582   16.9367 C   0  0  0  0  0  0  0  0  0  0  0  0
   10.5200   -3.4818   22.0643 C   0  0  0  0  0  0  0  0  0  0  0  0
   12.3253   -4.9610   21.7051 C   0  0  0  0  0  0  0  0  0  0  0  0
    1.3308   -9.1552   15.5346 C   0  0  0  0  0  0  0  0  0  0  0  0
   10.9908   -4.2772   19.7970 C   0  0  0  0  0  0  0  0  0  0  0  0
   12.2402   -3.2497   12.0316 N   0  0  0  0  0  0  0  0  0  0  0  0
   12.6859   -4.8540   23.0758 C   0  0  0  0  0  0  0  0  0  0  0  0
   11.5031   -3.7606   14.7857 C   0  0  0  0  0  0  0  0  0  0  0  0
    6.3516   -7.8624   17.9979 C   0  0  0  0  0  0  0  0  0  0  0  0
    0.3073   -8.5413   14.8391 C   0  0  0  0  0  0  0  0  0  0  0  0
    5.6506   -7.9351   16.8993 C   0  0  0  0  0  0  0  0  0  0  0  0
   11.4231   -3.2419   19.0866 N   0  0  0  0  0  0  0  0  0  0  0  0
   10.2276   -5.2491   19.0571 C   0  0  0  0  0  0  0  0  0  0  0  0
   10.0125   -5.1712   17.6569 C   0  0  0  0  0  0  0  0  0  0  0  0
   10.6820   -4.1756   17.0703 C   0  0  0  0  0  0  0  0  0  0  0  0
    4.4693   -8.7456   16.9365 O   0  0  0  0  0  0  0  0  0  0  0  0
    1.6394   -6.5881   14.5630 C   0  0  0  0  0  0  0  0  0  0  0  0
    3.7150   -9.2535   16.2852 C   0  0  0  0  0  0  0  0  0  0  0  0
    7.2017   -6.5473   15.8131 C   0  0  0  0  0  0  0  0  0  0  0  0
    6.0962   -7.2418   15.7661 C   0  0  0  0  0  0  0  0  0  0  0  0
    9.2370   -5.9580   16.8687 O   0  0  0  0  0  0  0  0  0  0  0  0
   13.7424   -3.1157   13.8147 C   0  0  0  0  0  0  0  0  0  0  0  0
   11.2491   -4.2906   21.1643 C   0  0  0  0  0  0  0  0  0  0  0  0
    7.5401   -7.2381   18.0257 C   0  0  0  0  0  0  0  0  0  0  0  0
   12.6671   -3.1319   14.8166 C   0  0  0  0  0  0  0  0  0  0  0  0
   13.4777   -3.4765   12.3508 C   0  0  0  0  0  0  0  0  0  0  0  0
    0.4748   -7.2917   14.3921 C   0  0  0  0  0  0  0  0  0  0  0  0
  1 19  4  0
  1 22  4  0
  2 29  2  0
  3 15  1  0
  3 22  1  0
  4  6  4  0
  4 14  4  0
  5  7  4  0
  5 11  4  0
  5 25  1  0
  6  9  4  0
  7 24  4  0
  8 26  4  0
  8 28  1  0
  8 31  4  0
  9 30  4  0
 10 14  4  0
 10 30  4  0
 11 17  4  0
 12 19  4  0
 12 20  4  0
 12 30  1  0
 13 33  1  0
 15 32  1  0
 16 18  4  0
 16 31  4  0
 17 34  4  0
 18 23  1  0
 18 27  4  0
 20 21  4  0
 21 22  4  0
 21 28  1  0
 23 25  1  0
 24 34  4  0
 26 27  4  0
 29 32  1  0
 29 33  1  0
M  END
$$$$

 Created by Python create_sdf_string function

 34 51  0  0  0  0  0  0  0  0999 V2000
   10.9071   -3.3720   17.7015 C   0  0  0  0  0  0  0  0  0  0  0  0
   15.0192   -2.9878   14.4389 O   0  0  0  0  0  0  0  0  0  0  0  0
   10.6076   -4.1710   15.8469 O   0  0  0  0  0  0  0  0  0  0  0  0
   11.9649   -3.9266   24.1500 C   0  0  0  0  0  0  0  0  0  0  0  0
    2.4888   -8.5485   15.7382 C   0  0  0  0  0  0  0  0  0  0  0  0
   10.9296   -3.1828   23.4789 C   0  0  0  0  0  0  0  0  0  0  0  0
    2.4307   -7.1771   15.3090 C   0  0  0  0  0  0  0  0  0  0  0  0
    8.1460   -6.4615   16.9799 C   0  0  0  0  0  0  0  0  0  0  0  0
   10.5719   -3.4611   22.2378 C   0  0  0  0  0  0  0  0  0  0  0  0
    1.1947   -8.9056   15.3780 C   0  0  0  0  0  0  0  0  0  0  0  0
   10.8272   -4.4444   19.7692 C   0  0  0  0  0  0  0  0  0  0  0  0
   12.1181   -2.8581   12.2443 N   0  0  0  0  0  0  0  0  0  0  0  0
   12.7144   -5.0419   22.9046 C   0  0  0  0  0  0  0  0  0  0  0  0
   11.1920   -4.0216   14.7454 C   0  0  0  0  0  0  0  0  0  0  0  0
    6.6847   -8.0737   17.8653 C   0  0  0  0  0  0  0  0  0  0  0  0
    0.4091   -8.4523   14.6308 C   0  0  0  0  0  0  0  0  0  0  0  0
    5.7266   -7.8974   16.7083 C   0  0  0  0  0  0  0  0  0  0  0  0
   11.4919   -3.4446   18.9764 N   0  0  0  0  0  0  0  0  0  0  0  0
   10.3934   -5.3399   19.1754 C   0  0  0  0  0  0  0  0  0  0  0  0
    9.9169   -4.9719   17.3739 C   0  0  0  0  0  0  0  0  0  0  0  0
   10.3943   -4.1471   16.9335 C   0  0  0  0  0  0  0  0  0  0  0  0
    4.5277   -8.6923   17.0238 O   0  0  0  0  0  0  0  0  0  0  0  0
    1.5360   -6.6785   14.3363 C   0  0  0  0  0  0  0  0  0  0  0  0
    3.5204   -9.3515   16.2392 C   0  0  0  0  0  0  0  0  0  0  0  0
    7.6408   -6.4169   15.6686 C   0  0  0  0  0  0  0  0  0  0  0  0
    6.3880   -6.9305   15.6008 C   0  0  0  0  0  0  0  0  0  0  0  0
    8.9965   -6.0425   16.7690 O   0  0  0  0  0  0  0  0  0  0  0  0
   11.2726   -4.2348   20.9783 C   0  0  0  0  0  0  0  0  0  0  0  0
    7.5194   -7.5038   17.8780 C   0  0  0  0  0  0  0  0  0  0  0  0
   12.6516   -3.2642   14.6882 N   0  0  0  0  0  0  0  0  0  0  0  0
   13.3513   -3.3296   12.1628 C   0  0  0  0  0  0  0  0  0  0  0  0
    0.3100   -7.7109   14.3199 C   0  0  0  0  0  0  0  0  0  0  0  0
   12.1464   -4.9498   21.6398 He  0  0  0  0  0  0  0  0  0  0  0  0
   13.7686   -3.1321   13.9272 He  0  0  0  0  0  0  0  0  0  0  0  0
  1  7  1  0
  1 18  4  0
  2 17  2  0
  3 14  1  0
  3 25  4  0
  3 26  4  0
  4  6  4  0
  5  7  4  0
  5  9  1  0
  5 10  4  0
  5 11  4  0
  5 16  4  0
  5 19  1  0
  5 23  2  0
  5 24  1  0
  5 32  2  0
  6  9  4  0
  7 23  3  0
  8 11  2  0
  8 27  1  0
  8 31  2  0
  9 28  4  0
 10 16  4  0
 10 19  3  0
 10 20  2  0
 11 18  4  0
 11 19  4  0
 11 23  3  0
 11 28  1  0
 12 20  1  0
 12 25  1  0
 12 31  1  0
 13 25  4  0
 14 30  1  0
 15 16  2  0
 15 17  4  0
 15 29  1  0
 17 22  1  0
 17 26  4  0
 18 26  4  0
 19 20  4  0
 19 29  4  0
 20 21  4  0
 20 23  2  0
 20 27  1  0
 22 24  1  0
 22 30  1  0
 23 24  3  0
 23 28  4  0
 23 32  4  0
 27 32  1  0
M  END
$$$$

 Created by Python create_sdf_string function

 34 37  0  0  0  0  0  0  0  0999 V2000
   11.1643   -3.1540   17.6964 C   0  0  0  0  0  0  0  0  0  0  0  0
   14.8722   -2.9980   14.2958 O   0  0  0  0  0  0  0  0  0  0  0  0
   10.5125   -4.1409   15.6327 O   0  0  0  0  0  0  0  0  0  0  0  0
   11.9625   -4.0720   23.8700 C   0  0  0  0  0  0  0  0  0  0  0  0
    2.4609   -8.4699   15.6363 C   0  0  0  0  0  0  0  0  0  0  0  0
   10.9087   -3.3143   23.4107 C   0  0  0  0  0  0  0  0  0  0  0  0
    2.5308   -7.1482   15.1512 C   0  0  0  0  0  0  0  0  0  0  0  0
    8.1081   -6.6300   16.9058 C   0  0  0  0  0  0  0  0  0  0  0  0
   10.5706   -3.4280   22.0497 C   0  0  0  0  0  0  0  0  0  0  0  0
   12.2516   -5.0336   21.6724 C   0  0  0  0  0  0  0  0  0  0  0  0
    1.3030   -9.1848   15.4465 C   0  0  0  0  0  0  0  0  0  0  0  0
   10.9384   -4.2716   19.7839 C   0  0  0  0  0  0  0  0  0  0  0  0
   12.1236   -2.8388   12.1202 N   0  0  0  0  0  0  0  0  0  0  0  0
   12.6434   -4.9372   23.0446 C   0  0  0  0  0  0  0  0  0  0  0  0
   11.4279   -3.8980   14.6828 C   0  0  0  0  0  0  0  0  0  0  0  0
    6.5292   -8.0986   17.8545 C   0  0  0  0  0  0  0  0  0  0  0  0
    0.2850   -8.6105   14.6967 C   0  0  0  0  0  0  0  0  0  0  0  0
    5.7504   -7.9604   16.7700 C   0  0  0  0  0  0  0  0  0  0  0  0
   11.3224   -3.1962   19.0464 N   0  0  0  0  0  0  0  0  0  0  0  0
   10.2020   -5.2258   19.0530 C   0  0  0  0  0  0  0  0  0  0  0  0
    9.9690   -5.1549   17.6728 C   0  0  0  0  0  0  0  0  0  0  0  0
   10.5994   -4.1205   17.0098 C   0  0  0  0  0  0  0  0  0  0  0  0
    4.4918   -8.6121   16.8051 O   0  0  0  0  0  0  0  0  0  0  0  0
    1.5674   -6.6154   14.4319 C   0  0  0  0  0  0  0  0  0  0  0  0
    3.6257   -9.1128   16.2836 C   0  0  0  0  0  0  0  0  0  0  0  0
    7.2885   -6.5097   15.7593 C   0  0  0  0  0  0  0  0  0  0  0  0
    6.1365   -7.1998   15.7032 C   0  0  0  0  0  0  0  0  0  0  0  0
    9.3002   -6.0214   16.9421 O   0  0  0  0  0  0  0  0  0  0  0  0
   13.7488   -3.1758   13.8967 C   0  0  0  0  0  0  0  0  0  0  0  0
   11.2429   -4.2925   21.1418 C   0  0  0  0  0  0  0  0  0  0  0  0
    7.6817   -7.4418   17.9527 C   0  0  0  0  0  0  0  0  0  0  0  0
   12.5901   -3.2987   14.7761 N   0  0  0  0  0  0  0  0  0  0  0  0
   13.4066   -3.3017   12.3926 C   0  0  0  0  0  0  0  0  0  0  0  0
    0.4449   -7.3599   14.1964 C   0  0  0  0  0  0  0  0  0  0  0  0
  1 19  4  0
  1 22  4  0
  2 29  2  0
  3 15  1  0
  3 22  1  0
  4  6  4  0
  4 14  4  0
  5  7  4  0
  5 11  4  0
  5 25  1  0
  6  9  4  0
  7 24  4  0
  8 26  4  0
  8 28  1  0
  8 31  4  0
  9 30  4  0
 10 14  4  0
 10 30  4  0
 11 17  4  0
 12 19  4  0
 12 20  4  0
 12 30  1  0
 13 33  1  0
 15 32  1  0
 16 18  4  0
 16 31  4  0
 17 34  4  0
 18 23  1  0
 18 27  4  0
 20 21  4  0
 21 22  4  0
 21 28  1  0
 23 25  1  0
 24 34  4  0
 26 27  4  0
 29 32  1  0
 29 33  1  0
M  END
$$$$

 Created by Python create_sdf_string function

 34 63  0  0  0  0  0  0  0  0999 V2000
   11.3219   -3.1055   17.7095 C   0  0  0  0  0  0  0  0  0  0  0  0
   14.8449   -3.1003   14.2092 O   0  0  0  0  0  0  0  0  0  0  0  0
   10.4075   -4.0770   15.6841 O   0  0  0  0  0  0  0  0  0  0  0  0
   11.7641   -4.1193   23.9194 C   0  0  0  0  0  0  0  0  0  0  0  0
    2.5622   -8.7877   15.8569 C   0  0  0  0  0  0  0  0  0  0  0  0
   11.2402   -3.2180   23.5992 C   0  0  0  0  0  0  0  0  0  0  0  0
    2.6352   -7.2499   15.1701 C   0  0  0  0  0  0  0  0  0  0  0  0
    8.4494   -6.4576   16.8088 C   0  0  0  0  0  0  0  0  0  0  0  0
   10.2097   -3.6183   22.1806 C   0  0  0  0  0  0  0  0  0  0  0  0
    1.4014   -9.1525   15.4457 C   0  0  0  0  0  0  0  0  0  0  0  0
   10.8259   -4.6221   19.8738 C   0  0  0  0  0  0  0  0  0  0  0  0
   12.2634   -2.9575   12.2201 N   0  0  0  0  0  0  0  0  0  0  0  0
   12.4907   -4.9955   23.0811 C   0  0  0  0  0  0  0  0  0  0  0  0
   11.3656   -4.1306   14.6953 C   0  0  0  0  0  0  0  0  0  0  0  0
    6.6497   -8.1323   17.8685 N   0  0  0  0  0  0  0  0  0  0  0  0
    0.5557   -8.3830   14.8365 C   0  0  0  0  0  0  0  0  0  0  0  0
    5.8176   -8.0183   16.7407 C   0  0  0  0  0  0  0  0  0  0  0  0
   11.2482   -3.3724   19.0581 N   0  0  0  0  0  0  0  0  0  0  0  0
   10.3383   -5.3891   18.9453 C   0  0  0  0  0  0  0  0  0  0  0  0
    9.7389   -5.0114   17.9230 C   0  0  0  0  0  0  0  0  0  0  0  0
   10.4435   -4.1535   17.0223 C   0  0  0  0  0  0  0  0  0  0  0  0
    4.5219   -8.5786   16.9487 O   0  0  0  0  0  0  0  0  0  0  0  0
    1.5748   -6.6786   14.3137 C   0  0  0  0  0  0  0  0  0  0  0  0
    3.5368   -9.0787   16.3912 C   0  0  0  0  0  0  0  0  0  0  0  0
    7.3536   -6.5570   15.7683 C   0  0  0  0  0  0  0  0  0  0  0  0
    6.2964   -7.2566   15.6942 C   0  0  0  0  0  0  0  0  0  0  0  0
    9.1991   -5.5419   16.7837 O   0  0  0  0  0  0  0  0  0  0  0  0
   11.3365   -4.0681   21.0088 C   0  0  0  0  0  0  0  0  0  0  0  0
    8.1214   -7.5679   18.0539 C   0  0  0  0  0  0  0  0  0  0  0  0
   12.7035   -3.2359   14.8901 O   0  0  0  0  0  0  0  0  0  0  0  0
   13.1109   -3.3577   12.4296 C   0  0  0  0  0  0  0  0  0  0  0  0
    0.4225   -7.4707   14.0683 C   0  0  0  0  0  0  0  0  0  0  0  0
   12.1313   -5.0173   21.5414 He  0  0  0  0  0  0  0  0  0  0  0  0
   13.7882   -3.1026   14.0143 He  0  0  0  0  0  0  0  0  0  0  0  0
  1 12  2  0
  1 18  4  0
  1 19  2  0
  1 21  4  0
  1 27  3  0
  3  6  3  0
  3 14  1  0
  3 21  1  0
  4  6  4  0
  4 13  4  0
  4 16  1  0
  5  7  4  0
  5 10  4  0
  5 24  1  0
  5 32  2  0
  6  9  1  0
  6 12  1  0
  6 25  1  0
  6 28  3  0
  7  8  2  0
  7 23  4  0
  8 10  4  0
  8 16  2  0
  8 20  1  0
  8 25  4  0
  8 26  1  0
  8 27  1  0
  8 29  4  0
  9 19  2  0
  9 28  4  0
 10 16  4  0
 11 18  3  0
 11 19  4  0
 11 28  1  0
 12 31  1  0
 13 14  4  0
 13 23  1  0
 13 25  3  0
 14 17  4  0
 14 19  2  0
 14 27  2  0
 14 30  1  0
 15 17  4  0
 15 25  1  0
 15 29  4  0
 16 20  4  0
 16 23  4  0
 16 25  4  0
 16 32  4  0
 17 22  1  0
 17 26  2  0
 18 27  3  0
 19 20  4  0
 19 21  4  0
 20 21  4  0
 20 27  1  0
 21 28  1  0
 21 30  4  0
 22 23  2  0
 22 24  1  0
 22 25  4  0
 23 32  4  0
 25 26  4  0
M  END
$$$$

 Created by Python create_sdf_string function

 34 37  0  0  0  0  0  0  0  0999 V2000
   11.2177   -3.1155   17.7503 C   0  0  0  0  0  0  0  0  0  0  0  0
   14.8333   -3.0443   14.2275 O   0  0  0  0  0  0  0  0  0  0  0  0
   10.4266   -3.9796   15.6613 O   0  0  0  0  0  0  0  0  0  0  0  0
   11.8836   -4.1457   23.8993 C   0  0  0  0  0  0  0  0  0  0  0  0
    2.5332   -8.4855   15.6832 C   0  0  0  0  0  0  0  0  0  0  0  0
   10.8463   -3.3873   23.4514 C   0  0  0  0  0  0  0  0  0  0  0  0
    2.6529   -7.2311   15.1232 C   0  0  0  0  0  0  0  0  0  0  0  0
    8.1314   -6.5958   16.8465 C   0  0  0  0  0  0  0  0  0  0  0  0
   10.5206   -3.4190   22.0943 C   0  0  0  0  0  0  0  0  0  0  0  0
   12.1756   -5.0858   21.6879 C   0  0  0  0  0  0  0  0  0  0  0  0
    1.3588   -9.1566   15.4989 C   0  0  0  0  0  0  0  0  0  0  0  0
   10.9132   -4.2535   19.8043 C   0  0  0  0  0  0  0  0  0  0  0  0
   12.0985   -2.8555   12.1339 N   0  0  0  0  0  0  0  0  0  0  0  0
   12.5579   -5.0097   23.0734 C   0  0  0  0  0  0  0  0  0  0  0  0
   11.4649   -4.0236   14.7463 C   0  0  0  0  0  0  0  0  0  0  0  0
    6.6860   -8.1702   17.8634 C   0  0  0  0  0  0  0  0  0  0  0  0
    0.3727   -8.5945   14.7118 C   0  0  0  0  0  0  0  0  0  0  0  0
    5.8644   -7.9957   16.8341 C   0  0  0  0  0  0  0  0  0  0  0  0
   11.3675   -3.1962   19.1021 N   0  0  0  0  0  0  0  0  0  0  0  0
   10.1495   -5.1914   19.0353 C   0  0  0  0  0  0  0  0  0  0  0  0
    9.9530   -5.0803   17.6682 C   0  0  0  0  0  0  0  0  0  0  0  0
   10.5974   -4.0660   17.0560 C   0  0  0  0  0  0  0  0  0  0  0  0
    4.5941   -8.6146   16.9674 O   0  0  0  0  0  0  0  0  0  0  0  0
    1.7029   -6.6808   14.3629 C   0  0  0  0  0  0  0  0  0  0  0  0
    3.6624   -9.1112   16.4134 C   0  0  0  0  0  0  0  0  0  0  0  0
    7.3225   -6.5633   15.7232 C   0  0  0  0  0  0  0  0  0  0  0  0
    6.1911   -7.2754   15.7349 C   0  0  0  0  0  0  0  0  0  0  0  0
    9.2236   -5.8063   16.8600 O   0  0  0  0  0  0  0  0  0  0  0  0
   13.6946   -3.1828   13.9211 C   0  0  0  0  0  0  0  0  0  0  0  0
   11.1927   -4.3002   21.1809 C   0  0  0  0  0  0  0  0  0  0  0  0
    7.8211   -7.4675   17.8795 C   0  0  0  0  0  0  0  0  0  0  0  0
   12.6390   -3.2392   14.9055 C   0  0  0  0  0  0  0  0  0  0  0  0
   13.2684   -3.4228   12.4852 C   0  0  0  0  0  0  0  0  0  0  0  0
    0.5314   -7.3680   14.1778 C   0  0  0  0  0  0  0  0  0  0  0  0
  1 19  4  0
  1 22  4  0
  2 29  2  0
  3 15  1  0
  3 22  1  0
  4  6  4  0
  4 14  4  0
  5  7  4  0
  5 11  4  0
  5 25  1  0
  6  9  4  0
  7 24  4  0
  8 26  4  0
  8 28  1  0
  8 31  4  0
  9 30  4  0
 10 14  4  0
 10 30  4  0
 11 17  4  0
 12 19  4  0
 12 20  4  0
 12 30  1  0
 13 33  1  0
 15 32  1  0
 16 18  4  0
 16 31  4  0
 17 34  4  0
 18 23  1  0
 18 27  4  0
 20 21  4  0
 21 22  4  0
 21 28  1  0
 23 25  1  0
 24 34  4  0
 26 27  4  0
 29 32  1  0
 29 33  1  0
M  END
$$$$

 Created by Python create_sdf_string function

 34 61  0  0  0  0  0  0  0  0999 V2000
   11.3257   -3.0900   17.9398 P   0  0  0  0  0  0  0  0  0  0  0  0
   14.7690   -2.7090   14.3508 O   0  0  0  0  0  0  0  0  0  0  0  0
   10.4993   -3.9689   15.6775 O   0  0  0  0  0  0  0  0  0  0  0  0
   11.7305   -4.4129   24.1009 C   0  0  0  0  0  0  0  0  0  0  0  0
    2.3824   -8.5591   15.7271 C   0  0  0  0  0  0  0  0  0  0  0  0
   10.9466   -3.2290   23.6187 C   0  0  0  0  0  0  0  0  0  0  0  0
    2.6754   -7.0163   15.1226 C   0  0  0  0  0  0  0  0  0  0  0  0
    8.2671   -6.7468   17.0712 C   0  0  0  0  0  0  0  0  0  0  0  0
   10.6068   -3.4232   21.7856 C   0  0  0  0  0  0  0  0  0  0  0  0
   11.9736   -5.1774   21.7871 C   0  0  0  0  0  0  0  0  0  0  0  0
    1.1737   -8.9094   15.4737 O   0  0  0  0  0  0  0  0  0  0  0  0
   11.0098   -4.3797   19.6077 C   0  0  0  0  0  0  0  0  0  0  0  0
   11.8571   -3.0032   12.0375 N   0  0  0  0  0  0  0  0  0  0  0  0
   12.3735   -4.7328   22.9596 C   0  0  0  0  0  0  0  0  0  0  0  0
   11.6404   -3.9273   14.9797 C   0  0  0  0  0  0  0  0  0  0  0  0
    6.8749   -8.0331   17.7024 C   0  0  0  0  0  0  0  0  0  0  0  0
    0.3121   -8.5673   14.8539 C   0  0  0  0  0  0  0  0  0  0  0  0
   11.6261   -3.3153   18.6543 N   0  0  0  0  0  0  0  0  0  0  0  0
   10.1798   -5.2979   18.8361 C   0  0  0  0  0  0  0  0  0  0  0  0
   10.1040   -5.0722   17.6620 C   0  0  0  0  0  0  0  0  0  0  0  0
   10.3945   -4.2826   17.2304 C   0  0  0  0  0  0  0  0  0  0  0  0
    4.6456   -8.5139   16.7755 O   0  0  0  0  0  0  0  0  0  0  0  0
    1.6732   -6.6811   14.6400 C   0  0  0  0  0  0  0  0  0  0  0  0
    3.6650   -9.4042   16.6802 C   0  0  0  0  0  0  0  0  0  0  0  0
    7.2224   -6.4611   15.8697 C   0  0  0  0  0  0  0  0  0  0  0  0
    6.1503   -6.9920   15.7215 C   0  0  0  0  0  0  0  0  0  0  0  0
    9.4103   -5.7998   16.9136 O   0  0  0  0  0  0  0  0  0  0  0  0
   13.8896   -2.9773   13.7455 C   0  0  0  0  0  0  0  0  0  0  0  0
   11.0318   -4.3879   21.4687 C   0  0  0  0  0  0  0  0  0  0  0  0
    7.7306   -7.4331   18.0964 C   0  0  0  0  0  0  0  0  0  0  0  0
   12.4849   -2.9807   14.8361 Se  0  0  0  0  0  0  0  0  0  0  0  0
   13.4034   -3.2661   12.7001 C   0  0  0  0  0  0  0  0  0  0  0  0
    0.4888   -7.2497   14.2036 C   0  0  0  0  0  0  0  0  0  0  0  0
    5.9618   -7.8956   16.8930 He  0  0  0  0  0  0  0  0  0  0  0  0
  1 21  4  0
  1 32  2  0
  2 28  2  0
  2 32  2  0
  3 15  1  0
  3 21  1  0
  3 30  4  0
  4  6  4  0
  4 14  4  0
  4 22  4  0
  5  7  2  0
  5 11  4  0
  5 19  2  0
  5 24  1  0
  6  9  4  0
  6 28  2  0
  6 29  1  0
  6 31  2  0
  7 10  2  0
  7 15  1  0
  7 23  4  0
  7 29  1  0
  7 33  3  0
  8 14  4  0
  8 25  2  0
  8 27  1  0
  8 30  4  0
  9 29  4  0
 10 14  4  0
 10 22  4  0
 10 25  4  0
 10 29  4  0
 11 17  4  0
 12 19  4  0
 12 29  1  0
 12 32  1  0
 12 33  4  0
 13 19  2  0
 13 27  3  0
 13 32  1  0
 14 32  3  0
 15 17  1  0
 15 22  2  0
 15 31  1  0
 16 17  1  0
 16 21  4  0
 16 30  4  0
 17 33  4  0
 19 20  4  0
 19 28  1  0
 20 21  4  0
 20 23  3  0
 22 24  1  0
 22 32  2  0
 23 24  2  0
 23 29  2  0
 23 33  4  0
 25 26  4  0
 26 28  4  0
 28 31  1  0
 28 32  1  0
M  END
$$$$

 Created by Python create_sdf_string function

 34 37  0  0  0  0  0  0  0  0999 V2000
   11.2956   -3.1155   17.7612 C   0  0  0  0  0  0  0  0  0  0  0  0
   14.7868   -2.7014   14.2860 O   0  0  0  0  0  0  0  0  0  0  0  0
   10.4565   -3.9482   15.6633 O   0  0  0  0  0  0  0  0  0  0  0  0
   11.7575   -4.1979   23.9295 C   0  0  0  0  0  0  0  0  0  0  0  0
    2.4818   -8.4196   15.7423 C   0  0  0  0  0  0  0  0  0  0  0  0
   10.7934   -3.3453   23.4031 C   0  0  0  0  0  0  0  0  0  0  0  0
    2.6579   -7.1188   15.2222 C   0  0  0  0  0  0  0  0  0  0  0  0
    8.1659   -6.6000   16.8939 C   0  0  0  0  0  0  0  0  0  0  0  0
   10.5495   -3.3971   22.0243 C   0  0  0  0  0  0  0  0  0  0  0  0
   12.1187   -5.1329   21.7531 C   0  0  0  0  0  0  0  0  0  0  0  0
    1.3149   -9.0969   15.5414 C   0  0  0  0  0  0  0  0  0  0  0  0
   10.9830   -4.2738   19.7779 C   0  0  0  0  0  0  0  0  0  0  0  0
   12.0616   -2.9529   12.0792 N   0  0  0  0  0  0  0  0  0  0  0  0
   12.3717   -5.1333   23.1417 C   0  0  0  0  0  0  0  0  0  0  0  0
   11.6315   -4.0208   14.8798 C   0  0  0  0  0  0  0  0  0  0  0  0
    6.6364   -8.1200   17.8537 C   0  0  0  0  0  0  0  0  0  0  0  0
    0.3186   -8.4864   14.8132 C   0  0  0  0  0  0  0  0  0  0  0  0
    5.8156   -7.9327   16.8082 C   0  0  0  0  0  0  0  0  0  0  0  0
   11.4451   -3.2304   19.0777 N   0  0  0  0  0  0  0  0  0  0  0  0
   10.2301   -5.2361   19.0345 C   0  0  0  0  0  0  0  0  0  0  0  0
   10.0348   -5.1086   17.6567 C   0  0  0  0  0  0  0  0  0  0  0  0
   10.6506   -4.0571   17.0652 C   0  0  0  0  0  0  0  0  0  0  0  0
    4.6242   -8.6372   16.8204 O   0  0  0  0  0  0  0  0  0  0  0  0
    1.7073   -6.5625   14.4596 C   0  0  0  0  0  0  0  0  0  0  0  0
    3.5929   -9.1080   16.5144 C   0  0  0  0  0  0  0  0  0  0  0  0
    7.3045   -6.4125   15.8458 C   0  0  0  0  0  0  0  0  0  0  0  0
    6.1721   -7.0945   15.7912 C   0  0  0  0  0  0  0  0  0  0  0  0
    9.3662   -5.9509   16.8591 O   0  0  0  0  0  0  0  0  0  0  0  0
   13.7178   -2.9326   13.9313 C   0  0  0  0  0  0  0  0  0  0  0  0
   11.2141   -4.2907   21.1654 C   0  0  0  0  0  0  0  0  0  0  0  0
    7.8304   -7.4761   17.9037 C   0  0  0  0  0  0  0  0  0  0  0  0
   12.5557   -2.9337   14.8319 C   0  0  0  0  0  0  0  0  0  0  0  0
   13.3503   -3.3064   12.5179 C   0  0  0  0  0  0  0  0  0  0  0  0
    0.5055   -7.2404   14.2878 C   0  0  0  0  0  0  0  0  0  0  0  0
  1 19  4  0
  1 22  4  0
  2 29  2  0
  3 15  1  0
  3 22  1  0
  4  6  4  0
  4 14  4  0
  5  7  4  0
  5 11  4  0
  5 25  1  0
  6  9  4  0
  7 24  4  0
  8 26  4  0
  8 28  1  0
  8 31  4  0
  9 30  4  0
 10 14  4  0
 10 30  4  0
 11 17  4  0
 12 19  4  0
 12 20  4  0
 12 30  1  0
 13 33  1  0
 15 32  1  0
 16 18  4  0
 16 31  4  0
 17 34  4  0
 18 23  1  0
 18 27  4  0
 20 21  4  0
 21 22  4  0
 21 28  1  0
 23 25  1  0
 24 34  4  0
 26 27  4  0
 29 32  1  0
 29 33  1  0
M  END
$$$$

 Created by Python create_sdf_string function

 34 56  0  0  0  0  0  0  0  0999 V2000
   11.2328   -3.0276   17.9457 C   0  0  0  0  0  0  0  0  0  0  0  0
   14.8984   -2.6704   14.2036 O   0  0  0  0  0  0  0  0  0  0  0  0
   10.5110   -3.9935   15.8646 O   0  0  0  0  0  0  0  0  0  0  0  0
   11.7050   -4.2076   23.7529 C   0  0  0  0  0  0  0  0  0  0  0  0
    2.3625   -8.2416   16.0473 C   0  0  0  0  0  0  0  0  0  0  0  0
    2.4467   -6.9543   15.4561 C   0  0  0  0  0  0  0  0  0  0  0  0
    7.9621   -6.3080   16.8989 C   0  0  0  0  0  0  0  0  0  0  0  0
   10.6190   -3.4149   22.1328 C   0  0  0  0  0  0  0  0  0  0  0  0
   12.2146   -5.1272   21.8639 C   0  0  0  0  0  0  0  0  0  0  0  0
    1.2261   -9.0017   15.6177 P   0  0  0  0  0  0  0  0  0  0  0  0
   10.9057   -4.3889   19.7826 C   0  0  0  0  0  0  0  0  0  0  0  0
   12.2806   -5.1452   23.2818 C   0  0  0  0  0  0  0  0  0  0  0  0
   11.5641   -4.0541   14.9449 C   0  0  0  0  0  0  0  0  0  0  0  0
    6.8063   -7.8755   17.9408 C   0  0  0  0  0  0  0  0  0  0  0  0
    0.1924   -8.4324   14.7831 C   0  0  0  0  0  0  0  0  0  0  0  0
    5.9453   -7.9071   16.7917 C   0  0  0  0  0  0  0  0  0  0  0  0
   11.3319   -3.3543   19.1079 N   0  0  0  0  0  0  0  0  0  0  0  0
   10.3980   -5.0229   17.7671 C   0  0  0  0  0  0  0  0  0  0  0  0
   10.5879   -4.0449   17.1096 C   0  0  0  0  0  0  0  0  0  0  0  0
    4.5701   -8.4618   16.7411 O   0  0  0  0  0  0  0  0  0  0  0  0
    1.6753   -6.8182   14.3218 C   0  0  0  0  0  0  0  0  0  0  0  0
    3.4914   -9.1560   16.3399 C   0  0  0  0  0  0  0  0  0  0  0  0
    7.1174   -6.5579   15.9496 C   0  0  0  0  0  0  0  0  0  0  0  0
    6.2468   -7.0263   15.8861 C   0  0  0  0  0  0  0  0  0  0  0  0
    9.3996   -6.0067   17.2121 O   0  0  0  0  0  0  0  0  0  0  0  0
   13.6390   -3.0397   13.9341 C   0  0  0  0  0  0  0  0  0  0  0  0
   11.0807   -4.2510   21.1743 C   0  0  0  0  0  0  0  0  0  0  0  0
    7.8945   -7.6160   18.0548 C   0  0  0  0  0  0  0  0  0  0  0  0
   12.3506   -2.6992   14.7730 C   0  0  0  0  0  0  0  0  0  0  0  0
   13.4261   -3.6709   12.4112 C   0  0  0  0  0  0  0  0  0  0  0  0
    0.4217   -7.0057   14.4213 C   0  0  0  0  0  0  0  0  0  0  0  0
   10.7823   -3.2207   23.4512 He  0  0  0  0  0  0  0  0  0  0  0  0
   12.1444   -3.0564   11.8200 He  0  0  0  0  0  0  0  0  0  0  0  0
   10.5373   -5.2195   19.1936 He  0  0  0  0  0  0  0  0  0  0  0  0
  1 17  4  0
  1 19  4  0
  1 24  1  0
  2 15  1  0
  2 26  2  0
  3 11  3  0
  3 13  1  0
  3 19  1  0
  3 27  2  0
  4 12  4  0
  4 19  1  0
  4 30  4  0
  5  6  4  0
  5 10  4  0
  5 22  1  0
  6  8  3  0
  6 21  4  0
  7 23  4  0
  7 26  2  0
  8 11  3  0
  8 13  3  0
  8 27  4  0
  8 28  1  0
  8 29  2  0
  9 12  4  0
  9 25  2  0
  9 27  4  0
 10 25  3  0
 11 19  2  0
 11 20  2  0
 11 27  1  0
 12 22  4  0
 12 26  3  0
 13 16  1  0
 13 27  1  0
 13 29  1  0
 13 31  1  0
 14 16  4  0
 14 26  4  0
 15 31  4  0
 16 20  1  0
 16 25  3  0
 16 27  1  0
 17 27  4  0
 18 19  4  0
 18 23  4  0
 18 25  1  0
 20 22  3  0
 21 22  2  0
 21 30  2  0
 21 31  4  0
 22 25  3  0
 23 24  4  0
 24 25  3  0
 26 29  1  0
 26 30  1  0
M  END
$$$$

 Created by Python create_sdf_string function

 34 37  0  0  0  0  0  0  0  0999 V2000
   11.1892   -3.0357   17.8648 C   0  0  0  0  0  0  0  0  0  0  0  0
   14.7524   -2.6897   14.1966 O   0  0  0  0  0  0  0  0  0  0  0  0
   10.4924   -3.9461   15.7564 O   0  0  0  0  0  0  0  0  0  0  0  0
   11.6791   -4.2169   23.9701 C   0  0  0  0  0  0  0  0  0  0  0  0
    2.4047   -8.3195   15.7866 C   0  0  0  0  0  0  0  0  0  0  0  0
   10.8011   -3.3290   23.4631 N   0  0  0  0  0  0  0  0  0  0  0  0
    2.5699   -7.0513   15.2584 C   0  0  0  0  0  0  0  0  0  0  0  0
    8.1874   -6.5686   16.9926 C   0  0  0  0  0  0  0  0  0  0  0  0
   10.5717   -3.3322   22.0870 C   0  0  0  0  0  0  0  0  0  0  0  0
   12.0732   -5.1656   21.8122 C   0  0  0  0  0  0  0  0  0  0  0  0
    1.1948   -8.9720   15.6382 C   0  0  0  0  0  0  0  0  0  0  0  0
   11.0275   -4.2126   19.8668 C   0  0  0  0  0  0  0  0  0  0  0  0
   12.2246   -3.0326   11.8890 C   0  0  0  0  0  0  0  0  0  0  0  0
   12.3358   -5.1217   23.1951 C   0  0  0  0  0  0  0  0  0  0  0  0
   11.6056   -4.0417   14.9085 C   0  0  0  0  0  0  0  0  0  0  0  0
    6.6438   -8.0952   17.8983 C   0  0  0  0  0  0  0  0  0  0  0  0
    0.2087   -8.3759   14.8512 C   0  0  0  0  0  0  0  0  0  0  0  0
    5.8210   -7.8925   16.8545 C   0  0  0  0  0  0  0  0  0  0  0  0
   11.3309   -3.0656   19.1862 N   0  0  0  0  0  0  0  0  0  0  0  0
   10.4092   -5.2425   19.1227 C   0  0  0  0  0  0  0  0  0  0  0  0
   10.1297   -5.1099   17.7730 C   0  0  0  0  0  0  0  0  0  0  0  0
   10.6706   -4.0316   17.1654 C   0  0  0  0  0  0  0  0  0  0  0  0
    4.5933   -8.5888   16.8760 O   0  0  0  0  0  0  0  0  0  0  0  0
    1.6152   -6.4915   14.5130 C   0  0  0  0  0  0  0  0  0  0  0  0
    3.5358   -8.9828   16.4841 C   0  0  0  0  0  0  0  0  0  0  0  0
    7.3477   -6.3588   15.9337 C   0  0  0  0  0  0  0  0  0  0  0  0
    6.1932   -7.0409   15.8474 C   0  0  0  0  0  0  0  0  0  0  0  0
    9.3984   -5.9520   17.0239 O   0  0  0  0  0  0  0  0  0  0  0  0
   13.6569   -3.0178   13.8386 C   0  0  0  0  0  0  0  0  0  0  0  0
   11.2234   -4.2691   21.2396 C   0  0  0  0  0  0  0  0  0  0  0  0
    7.8195   -7.4278   17.9812 C   0  0  0  0  0  0  0  0  0  0  0  0
   12.4575   -2.8363   14.7084 C   0  0  0  0  0  0  0  0  0  0  0  0
   13.3648   -3.5958   12.4929 N   0  0  0  0  0  0  0  0  0  0  0  0
    0.4563   -7.1708   14.2698 C   0  0  0  0  0  0  0  0  0  0  0  0
  1 19  4  0
  1 22  4  0
  2 29  2  0
  3 15  1  0
  3 22  1  0
  4  6  4  0
  4 14  4  0
  5  7  4  0
  5 11  4  0
  5 25  1  0
  6  9  4  0
  7 24  4  0
  8 26  4  0
  8 28  1  0
  8 31  4  0
  9 30  4  0
 10 14  4  0
 10 30  4  0
 11 17  4  0
 12 19  4  0
 12 20  4  0
 12 30  1  0
 13 33  1  0
 15 32  1  0
 16 18  4  0
 16 31  4  0
 17 34  4  0
 18 23  1  0
 18 27  4  0
 20 21  4  0
 21 22  4  0
 21 28  1  0
 23 25  1  0
 24 34  4  0
 26 27  4  0
 29 32  1  0
 29 33  1  0
M  END
$$$$

 Created by Python create_sdf_string function

 34 46  0  0  0  0  0  0  0  0999 V2000
   11.0160   -3.0880   17.7964 C   0  0  0  0  0  0  0  0  0  0  0  0
   14.7964   -2.6599   14.2257 O   0  0  0  0  0  0  0  0  0  0  0  0
   11.8343   -4.2149   23.8986 C   0  0  0  0  0  0  0  0  0  0  0  0
    2.3940   -8.3482   15.7200 C   0  0  0  0  0  0  0  0  0  0  0  0
   10.9211   -3.2202   23.4082 N   0  0  0  0  0  0  0  0  0  0  0  0
    2.5233   -7.0085   15.2902 C   0  0  0  0  0  0  0  0  0  0  0  0
    7.9460   -6.3824   16.7446 C   0  0  0  0  0  0  0  0  0  0  0  0
   10.7313   -3.2528   21.8783 C   0  0  0  0  0  0  0  0  0  0  0  0
   12.0182   -4.9952   21.9242 C   0  0  0  0  0  0  0  0  0  0  0  0
    1.2223   -8.8973   15.5165 C   0  0  0  0  0  0  0  0  0  0  0  0
   10.9107   -4.1416   20.0018 C   0  0  0  0  0  0  0  0  0  0  0  0
   12.3746   -2.9020   11.8603 C   0  0  0  0  0  0  0  0  0  0  0  0
   12.3827   -4.9261   23.1473 C   0  0  0  0  0  0  0  0  0  0  0  0
   11.6412   -3.8109   14.8710 C   0  0  0  0  0  0  0  0  0  0  0  0
    6.4760   -8.0925   18.1425 C   0  0  0  0  0  0  0  0  0  0  0  0
    0.3851   -8.3259   14.8714 C   0  0  0  0  0  0  0  0  0  0  0  0
    5.8710   -7.7609   16.6459 C   0  0  0  0  0  0  0  0  0  0  0  0
   11.3895   -3.0781   19.1081 N   0  0  0  0  0  0  0  0  0  0  0  0
   10.4400   -5.2426   19.0991 C   0  0  0  0  0  0  0  0  0  0  0  0
   10.1964   -5.2460   17.7198 C   0  0  0  0  0  0  0  0  0  0  0  0
   10.7211   -4.1990   17.2749 C   0  0  0  0  0  0  0  0  0  0  0  0
    4.8035   -8.4377   16.7915 O   0  0  0  0  0  0  0  0  0  0  0  0
    1.6429   -6.5066   14.3810 C   0  0  0  0  0  0  0  0  0  0  0  0
    3.7035   -8.9341   16.6276 C   0  0  0  0  0  0  0  0  0  0  0  0
    7.4455   -6.3887   15.9731 C   0  0  0  0  0  0  0  0  0  0  0  0
    9.3062   -5.8553   17.0565 O   0  0  0  0  0  0  0  0  0  0  0  0
   13.5152   -3.0494   13.9710 C   0  0  0  0  0  0  0  0  0  0  0  0
   11.2488   -4.3322   21.1757 C   0  0  0  0  0  0  0  0  0  0  0  0
    7.9819   -7.4859   18.0289 C   0  0  0  0  0  0  0  0  0  0  0  0
   13.3313   -3.4461   12.6689 N   0  0  0  0  0  0  0  0  0  0  0  0
    0.5250   -7.3155   14.0132 S   0  0  0  0  0  0  0  0  0  0  0  0
   10.5857   -4.0375   15.8117 He  0  0  0  0  0  0  0  0  0  0  0  0
    6.0037   -6.9787   15.7055 He  0  0  0  0  0  0  0  0  0  0  0  0
   12.6284   -2.7687   14.9519 He  0  0  0  0  0  0  0  0  0  0  0  0
  1 18  4  0
  1 21  4  0
  2 10  2  0
  2 16  2  0
  2 27  2  0
  2 30  4  0
  3  5  4  0
  3 13  4  0
  4  6  4  0
  4  9  3  0
  4 10  4  0
  5  8  4  0
  6 14  3  0
  6 23  4  0
  7 14  3  0
  7 25  4  0
  7 26  1  0
  7 29  4  0
  8 10  1  0
  8 28  4  0
  9 12  2  0
  9 13  4  0
  9 28  4  0
 10 16  2  0
 10 30  3  0
 11 18  4  0
 11 19  4  0
 11 20  2  0
 12 30  1  0
 13 25  3  0
 14 20  2  0
 15 17  4  0
 15 22  4  0
 15 27  2  0
 15 29  4  0
 16 31  4  0
 17 22  1  0
 19 20  4  0
 19 24  2  0
 20 21  4  0
 22 24  1  0
 22 25  2  0
 23 29  2  0
 23 31  4  0
 25 28  2  0
 27 30  2  0
M  END
$$$$

 Created by Python create_sdf_string function

 34 37  0  0  0  0  0  0  0  0999 V2000
   11.1647   -3.0431   17.8118 C   0  0  0  0  0  0  0  0  0  0  0  0
   14.8037   -2.6405   14.2041 O   0  0  0  0  0  0  0  0  0  0  0  0
   10.5982   -4.0566   15.7132 O   0  0  0  0  0  0  0  0  0  0  0  0
   11.7765   -4.1165   23.9347 C   0  0  0  0  0  0  0  0  0  0  0  0
    2.4513   -8.2518   15.7512 C   0  0  0  0  0  0  0  0  0  0  0  0
   10.9195   -3.2185   23.4288 N   0  0  0  0  0  0  0  0  0  0  0  0
    2.6300   -6.9939   15.1800 C   0  0  0  0  0  0  0  0  0  0  0  0
    8.1660   -6.5709   16.9601 C   0  0  0  0  0  0  0  0  0  0  0  0
   10.6491   -3.2329   22.0673 C   0  0  0  0  0  0  0  0  0  0  0  0
   12.0671   -5.0997   21.7782 C   0  0  0  0  0  0  0  0  0  0  0  0
    1.2943   -8.9513   15.5793 C   0  0  0  0  0  0  0  0  0  0  0  0
   10.9851   -4.1846   19.8419 C   0  0  0  0  0  0  0  0  0  0  0  0
   12.3665   -2.8763   11.8596 C   0  0  0  0  0  0  0  0  0  0  0  0
   12.3735   -5.0678   23.1556 C   0  0  0  0  0  0  0  0  0  0  0  0
   11.5755   -3.8943   14.8394 C   0  0  0  0  0  0  0  0  0  0  0  0
    6.5909   -8.0319   17.8760 C   0  0  0  0  0  0  0  0  0  0  0  0
    0.3131   -8.4340   14.7497 C   0  0  0  0  0  0  0  0  0  0  0  0
    5.7777   -7.8474   16.8149 C   0  0  0  0  0  0  0  0  0  0  0  0
   11.2777   -3.0376   19.1532 N   0  0  0  0  0  0  0  0  0  0  0  0
   10.3661   -5.2386   19.1211 C   0  0  0  0  0  0  0  0  0  0  0  0
   10.0944   -5.1410   17.7793 C   0  0  0  0  0  0  0  0  0  0  0  0
   10.6589   -4.0695   17.1340 C   0  0  0  0  0  0  0  0  0  0  0  0
    4.5860   -8.5631   16.7982 O   0  0  0  0  0  0  0  0  0  0  0  0
    1.6937   -6.4878   14.3646 C   0  0  0  0  0  0  0  0  0  0  0  0
    3.5362   -8.8882   16.5513 C   0  0  0  0  0  0  0  0  0  0  0  0
    7.3510   -6.3523   15.8809 C   0  0  0  0  0  0  0  0  0  0  0  0
    6.1632   -7.0018   15.7923 C   0  0  0  0  0  0  0  0  0  0  0  0
    9.4192   -6.0385   17.0224 O   0  0  0  0  0  0  0  0  0  0  0  0
   13.6619   -2.9717   13.9067 C   0  0  0  0  0  0  0  0  0  0  0  0
   11.2264   -4.1922   21.1832 C   0  0  0  0  0  0  0  0  0  0  0  0
    7.7643   -7.3774   17.9487 C   0  0  0  0  0  0  0  0  0  0  0  0
   12.6010   -2.8661   14.9101 C   0  0  0  0  0  0  0  0  0  0  0  0
   13.3365   -3.4916   12.6922 N   0  0  0  0  0  0  0  0  0  0  0  0
    0.5200   -7.2092   14.1495 C   0  0  0  0  0  0  0  0  0  0  0  0
  1 19  4  0
  1 22  4  0
  2 29  2  0
  3 15  1  0
  3 22  1  0
  4  6  4  0
  4 14  4  0
  5  7  4  0
  5 11  4  0
  5 25  1  0
  6  9  4  0
  7 24  4  0
  8 26  4  0
  8 28  1  0
  8 31  4  0
  9 30  4  0
 10 14  4  0
 10 30  4  0
 11 17  4  0
 12 19  4  0
 12 20  4  0
 12 30  1  0
 13 33  1  0
 15 32  1  0
 16 18  4  0
 16 31  4  0
 17 34  4  0
 18 23  1  0
 18 27  4  0
 20 21  4  0
 21 22  4  0
 21 28  1  0
 23 25  1  0
 24 34  4  0
 26 27  4  0
 29 32  1  0
 29 33  1  0
M  END
$$$$

 Created by Python create_sdf_string function

 34 54  0  0  0  0  0  0  0  0999 V2000
   11.2948   -3.0826   17.7563 C   0  0  0  0  0  0  0  0  0  0  0  0
   14.7716   -2.7730   14.2432 O   0  0  0  0  0  0  0  0  0  0  0  0
   10.5568   -4.0121   15.7600 O   0  0  0  0  0  0  0  0  0  0  0  0
   11.7847   -4.2264   24.1679 C   0  0  0  0  0  0  0  0  0  0  0  0
    2.3868   -8.3387   15.6053 C   0  0  0  0  0  0  0  0  0  0  0  0
   10.9150   -3.3090   23.3345 N   0  0  0  0  0  0  0  0  0  0  0  0
    2.6483   -7.0669   15.0491 C   0  0  0  0  0  0  0  0  0  0  0  0
    8.1558   -6.5529   16.7011 C   0  0  0  0  0  0  0  0  0  0  0  0
   10.3644   -3.3449   22.0423 C   0  0  0  0  0  0  0  0  0  0  0  0
   12.0355   -5.2848   21.9387 C   0  0  0  0  0  0  0  0  0  0  0  0
    1.2093   -8.9418   15.5963 C   0  0  0  0  0  0  0  0  0  0  0  0
   10.9231   -4.2517   19.8302 C   0  0  0  0  0  0  0  0  0  0  0  0
   12.5481   -2.8311   11.6711 C   0  0  0  0  0  0  0  0  0  0  0  0
   12.2616   -4.9284   23.2327 C   0  0  0  0  0  0  0  0  0  0  0  0
   11.5095   -3.9973   14.7128 C   0  0  0  0  0  0  0  0  0  0  0  0
    6.4457   -7.9277   17.7412 C   0  0  0  0  0  0  0  0  0  0  0  0
    0.5131   -8.6156   14.8231 C   0  0  0  0  0  0  0  0  0  0  0  0
    5.7831   -7.8308   16.7876 C   0  0  0  0  0  0  0  0  0  0  0  0
   11.1735   -3.1680   19.0866 N   0  0  0  0  0  0  0  0  0  0  0  0
   10.6104   -5.1769   19.1340 C   0  0  0  0  0  0  0  0  0  0  0  0
    9.9631   -5.3102   17.7639 C   0  0  0  0  0  0  0  0  0  0  0  0
   10.4465   -4.0519   17.4269 C   0  0  0  0  0  0  0  0  0  0  0  0
    4.8180   -8.5420   16.8402 O   0  0  0  0  0  0  0  0  0  0  0  0
    1.7894   -6.2108   14.4982 C   0  0  0  0  0  0  0  0  0  0  0  0
    3.4892   -8.9105   16.7262 C   0  0  0  0  0  0  0  0  0  0  0  0
    7.4658   -6.1847   15.8165 C   0  0  0  0  0  0  0  0  0  0  0  0
    6.1507   -6.9730   15.9466 C   0  0  0  0  0  0  0  0  0  0  0  0
    9.6603   -6.1834   17.0027 O   0  0  0  0  0  0  0  0  0  0  0  0
   13.8319   -2.9959   14.0903 C   0  0  0  0  0  0  0  0  0  0  0  0
   11.0745   -4.1640   20.9902 C   0  0  0  0  0  0  0  0  0  0  0  0
    7.7399   -7.1504   17.8272 C   0  0  0  0  0  0  0  0  0  0  0  0
   12.6111   -2.6428   14.7126 C   0  0  0  0  0  0  0  0  0  0  0  0
   13.4446   -3.3937   12.6355 N   0  0  0  0  0  0  0  0  0  0  0  0
    0.5598   -7.3575   14.1866 C   0  0  0  0  0  0  0  0  0  0  0  0
  1 11  3  0
  1 18  2  0
  1 19  4  0
  1 22  4  0
  1 28  1  0
  1 31  1  0
  2  5  2  0
  2  7  1  0
  3 15  1  0
  3 22  1  0
  4  6  4  0
  4 14  4  0
  4 21  3  0
  5  7  4  0
  5 11  4  0
  5 24  1  0
  5 25  1  0
  6  9  4  0
  6 18  1  0
  8 10  2  0
  8 24  2  0
  8 26  4  0
  8 28  1  0
  8 31  4  0
  9 14  4  0
  9 30  4  0
 10 14  4  0
 10 30  4  0
 12 19  4  0
 12 20  4  0
 12 24  3  0
 12 30  1  0
 13 15  4  0
 13 16  4  0
 13 24  1  0
 14 16  1  0
 15 19  2  0
 15 32  1  0
 16 18  4  0
 16 31  4  0
 17 28  4  0
 18 23  1  0
 18 27  4  0
 18 28  1  0
 20 21  4  0
 21 22  4  0
 21 28  1  0
 23 25  1  0
 23 33  4  0
 24 28  3  0
 24 34  4  0
 25 27  1  0
 29 32  1  0
 29 33  1  0
M  END
$$$$

 Created by Python create_sdf_string function

 34 37  0  0  0  0  0  0  0  0999 V2000
   11.1207   -3.0419   17.7973 C   0  0  0  0  0  0  0  0  0  0  0  0
   14.8529   -2.7626   14.2857 O   0  0  0  0  0  0  0  0  0  0  0  0
   10.4965   -4.0755   15.7279 O   0  0  0  0  0  0  0  0  0  0  0  0
   11.6602   -4.1371   23.9745 C   0  0  0  0  0  0  0  0  0  0  0  0
    2.4857   -8.2717   15.7601 C   0  0  0  0  0  0  0  0  0  0  0  0
   10.7534   -3.2899   23.4490 N   0  0  0  0  0  0  0  0  0  0  0  0
    2.6585   -7.0211   15.1597 C   0  0  0  0  0  0  0  0  0  0  0  0
    8.2346   -6.5597   16.8896 C   0  0  0  0  0  0  0  0  0  0  0  0
   10.5139   -3.3112   22.0733 C   0  0  0  0  0  0  0  0  0  0  0  0
   11.9763   -5.1423   21.8011 C   0  0  0  0  0  0  0  0  0  0  0  0
    1.3502   -8.9980   15.5568 C   0  0  0  0  0  0  0  0  0  0  0  0
   10.9497   -4.2048   19.8302 C   0  0  0  0  0  0  0  0  0  0  0  0
   12.5249   -2.8591   11.8297 C   0  0  0  0  0  0  0  0  0  0  0  0
   12.2741   -5.0917   23.1955 C   0  0  0  0  0  0  0  0  0  0  0  0
   11.5662   -3.9111   14.8301 C   0  0  0  0  0  0  0  0  0  0  0  0
    6.5804   -7.9196   17.8348 C   0  0  0  0  0  0  0  0  0  0  0  0
    0.3639   -8.4442   14.7478 C   0  0  0  0  0  0  0  0  0  0  0  0
    5.7915   -7.7752   16.7764 C   0  0  0  0  0  0  0  0  0  0  0  0
   11.2855   -3.0689   19.1446 N   0  0  0  0  0  0  0  0  0  0  0  0
   10.3654   -5.2617   19.1090 C   0  0  0  0  0  0  0  0  0  0  0  0
   10.1525   -5.1903   17.7302 C   0  0  0  0  0  0  0  0  0  0  0  0
   10.6397   -4.0985   17.1094 C   0  0  0  0  0  0  0  0  0  0  0  0
    4.6495   -8.5379   16.7170 O   0  0  0  0  0  0  0  0  0  0  0  0
    1.7148   -6.5154   14.3542 C   0  0  0  0  0  0  0  0  0  0  0  0
    3.5388   -8.8416   16.6596 C   0  0  0  0  0  0  0  0  0  0  0  0
    7.4038   -6.3261   15.8219 C   0  0  0  0  0  0  0  0  0  0  0  0
    6.1853   -6.9349   15.7609 C   0  0  0  0  0  0  0  0  0  0  0  0
    9.5218   -6.1086   16.9184 O   0  0  0  0  0  0  0  0  0  0  0  0
   13.7329   -2.9808   13.9078 C   0  0  0  0  0  0  0  0  0  0  0  0
   11.1385   -4.2394   21.1903 C   0  0  0  0  0  0  0  0  0  0  0  0
    7.7805   -7.3350   17.8937 C   0  0  0  0  0  0  0  0  0  0  0  0
   12.5079   -2.7818   14.7869 C   0  0  0  0  0  0  0  0  0  0  0  0
   13.4313   -3.4577   12.6555 N   0  0  0  0  0  0  0  0  0  0  0  0
    0.5524   -7.2316   14.1740 C   0  0  0  0  0  0  0  0  0  0  0  0
  1 19  4  0
  1 22  4  0
  2 29  2  0
  3 15  1  0
  3 22  1  0
  4  6  4  0
  4 14  4  0
  5  7  4  0
  5 11  4  0
  5 25  1  0
  6  9  4  0
  7 24  4  0
  8 26  4  0
  8 28  1  0
  8 31  4  0
  9 30  4  0
 10 14  4  0
 10 30  4  0
 11 17  4  0
 12 19  4  0
 12 20  4  0
 12 30  1  0
 13 33  1  0
 15 32  1  0
 16 18  4  0
 16 31  4  0
 17 34  4  0
 18 23  1  0
 18 27  4  0
 20 21  4  0
 21 22  4  0
 21 28  1  0
 23 25  1  0
 24 34  4  0
 26 27  4  0
 29 32  1  0
 29 33  1  0
M  END
$$$$

 Created by Python create_sdf_string function

 34 42  0  0  0  0  0  0  0  0999 V2000
   11.0462   -3.0824   17.6161 C   0  0  0  0  0  0  0  0  0  0  0  0
   14.9296   -2.9380   14.2936 O   0  0  0  0  0  0  0  0  0  0  0  0
   10.4098   -4.1242   15.6734 O   0  0  0  0  0  0  0  0  0  0  0  0
   11.6124   -4.1379   23.8737 C   0  0  0  0  0  0  0  0  0  0  0  0
    2.5348   -8.3576   15.6887 C   0  0  0  0  0  0  0  0  0  0  0  0
   10.9189   -3.2819   23.4771 N   0  0  0  0  0  0  0  0  0  0  0  0
    2.5342   -6.9465   15.2850 C   0  0  0  0  0  0  0  0  0  0  0  0
    8.0783   -6.6618   16.6062 C   0  0  0  0  0  0  0  0  0  0  0  0
   10.5631   -3.1187   22.1100 C   0  0  0  0  0  0  0  0  0  0  0  0
   11.9853   -5.0306   21.7767 C   0  0  0  0  0  0  0  0  0  0  0  0
    1.4664   -8.8983   15.7009 C   0  0  0  0  0  0  0  0  0  0  0  0
   12.3694   -2.7619   11.8059 C   0  0  0  0  0  0  0  0  0  0  0  0
   12.2252   -5.1372   23.1897 C   0  0  0  0  0  0  0  0  0  0  0  0
    6.6153   -8.0561   17.8097 C   0  0  0  0  0  0  0  0  0  0  0  0
    0.4736   -8.4069   14.6947 C   0  0  0  0  0  0  0  0  0  0  0  0
    5.7700   -8.0069   16.6549 C   0  0  0  0  0  0  0  0  0  0  0  0
   11.4506   -3.1293   19.1323 N   0  0  0  0  0  0  0  0  0  0  0  0
   10.4377   -5.1980   19.0593 C   0  0  0  0  0  0  0  0  0  0  0  0
   10.2876   -5.4079   17.8439 C   0  0  0  0  0  0  0  0  0  0  0  0
   10.7079   -4.0577   17.1513 C   0  0  0  0  0  0  0  0  0  0  0  0
    4.5627   -8.3828   16.7358 O   0  0  0  0  0  0  0  0  0  0  0  0
    1.8564   -6.2845   14.0811 I   0  0  0  0  0  0  0  0  0  0  0  0
    3.5860   -8.7566   16.6694 C   0  0  0  0  0  0  0  0  0  0  0  0
    7.4073   -6.5450   15.8074 C   0  0  0  0  0  0  0  0  0  0  0  0
    6.1822   -6.8726   15.6632 C   0  0  0  0  0  0  0  0  0  0  0  0
    9.3694   -6.2690   17.1928 O   0  0  0  0  0  0  0  0  0  0  0  0
   13.4617   -2.9903   13.9261 C   0  0  0  0  0  0  0  0  0  0  0  0
    7.8880   -7.2971   17.8706 C   0  0  0  0  0  0  0  0  0  0  0  0
   12.4524   -2.8568   14.8717 C   0  0  0  0  0  0  0  0  0  0  0  0
   13.2324   -3.4170   12.6030 N   0  0  0  0  0  0  0  0  0  0  0  0
    0.7215   -7.1739   14.2644 C   0  0  0  0  0  0  0  0  0  0  0  0
   10.8929   -4.0438   19.9866 He  0  0  0  0  0  0  0  0  0  0  0  0
   11.5332   -3.9459   14.9201 He  0  0  0  0  0  0  0  0  0  0  0  0
   11.4071   -4.3407   21.1688 He  0  0  0  0  0  0  0  0  0  0  0  0
  1 17  4  0
  1 20  4  0
  1 30  2  0
  2 12  2  0
  2 27  2  0
  2 30  3  0
  3 20  1  0
  3 21  3  0
  4  6  4  0
  4  9  2  0
  4 13  4  0
  4 26  3  0
  5  7  4  0
  5 11  4  0
  5 19  4  0
  5 23  1  0
  6  9  4  0
  6 22  3  0
  6 25  1  0
  7 22  4  0
  8 24  4  0
  8 26  1  0
  8 28  2  0
  9 14  3  0
 10 13  4  0
 11 14  2  0
 11 15  4  0
 12 30  1  0
 14 16  4  0
 14 28  4  0
 16 21  1  0
 16 25  4  0
 17 21  1  0
 17 28  3  0
 18 19  4  0
 19 20  4  0
 19 23  3  0
 19 26  1  0
 20 24  4  0
 21 23  1  0
 24 25  4  0
 27 29  1  0
M  END
$$$$

 Created by Python create_sdf_string function

 34 37  0  0  0  0  0  0  0  0999 V2000
   11.1595   -3.0804   17.7391 C   0  0  0  0  0  0  0  0  0  0  0  0
   14.7867   -2.9154   14.2589 O   0  0  0  0  0  0  0  0  0  0  0  0
   10.4695   -4.1745   15.7004 O   0  0  0  0  0  0  0  0  0  0  0  0
   11.6356   -4.1965   23.9566 C   0  0  0  0  0  0  0  0  0  0  0  0
    2.5114   -8.1994   15.7704 C   0  0  0  0  0  0  0  0  0  0  0  0
   10.8533   -3.2418   23.4330 N   0  0  0  0  0  0  0  0  0  0  0  0
    2.6906   -6.9706   15.1342 C   0  0  0  0  0  0  0  0  0  0  0  0
    8.2369   -6.6812   16.8979 C   0  0  0  0  0  0  0  0  0  0  0  0
   10.6430   -3.2076   22.0584 C   0  0  0  0  0  0  0  0  0  0  0  0
   11.9901   -5.1245   21.7786 C   0  0  0  0  0  0  0  0  0  0  0  0
    1.3656   -8.9090   15.5703 C   0  0  0  0  0  0  0  0  0  0  0  0
   10.9994   -4.1651   19.8301 C   0  0  0  0  0  0  0  0  0  0  0  0
   12.3931   -2.7493   11.8047 C   0  0  0  0  0  0  0  0  0  0  0  0
   12.2389   -5.1338   23.1680 C   0  0  0  0  0  0  0  0  0  0  0  0
   11.5565   -3.9962   14.8407 C   0  0  0  0  0  0  0  0  0  0  0  0
    6.5800   -8.0464   17.7956 C   0  0  0  0  0  0  0  0  0  0  0  0
    0.4079   -8.3521   14.7175 C   0  0  0  0  0  0  0  0  0  0  0  0
    5.8032   -7.8378   16.7470 C   0  0  0  0  0  0  0  0  0  0  0  0
   11.2861   -3.0456   19.1066 N   0  0  0  0  0  0  0  0  0  0  0  0
   10.4110   -5.2385   19.1305 C   0  0  0  0  0  0  0  0  0  0  0  0
   10.1535   -5.2014   17.7766 C   0  0  0  0  0  0  0  0  0  0  0  0
   10.6463   -4.1410   17.0967 C   0  0  0  0  0  0  0  0  0  0  0  0
    4.5861   -8.5110   16.7600 O   0  0  0  0  0  0  0  0  0  0  0  0
    1.7900   -6.4554   14.3069 C   0  0  0  0  0  0  0  0  0  0  0  0
    3.5302   -8.7786   16.6472 C   0  0  0  0  0  0  0  0  0  0  0  0
    7.4395   -6.4552   15.7956 C   0  0  0  0  0  0  0  0  0  0  0  0
    6.2373   -7.0393   15.6963 C   0  0  0  0  0  0  0  0  0  0  0  0
    9.5285   -6.1768   17.0025 O   0  0  0  0  0  0  0  0  0  0  0  0
   13.6332   -3.0569   13.8927 C   0  0  0  0  0  0  0  0  0  0  0  0
   11.2034   -4.1793   21.1880 C   0  0  0  0  0  0  0  0  0  0  0  0
    7.7812   -7.4696   17.8645 C   0  0  0  0  0  0  0  0  0  0  0  0
   12.4650   -2.8845   14.8528 C   0  0  0  0  0  0  0  0  0  0  0  0
   13.2468   -3.4307   12.6181 N   0  0  0  0  0  0  0  0  0  0  0  0
    0.6498   -7.1688   14.1046 C   0  0  0  0  0  0  0  0  0  0  0  0
  1 19  4  0
  1 22  4  0
  2 29  2  0
  3 15  1  0
  3 22  1  0
  4  6  4  0
  4 14  4  0
  5  7  4  0
  5 11  4  0
  5 25  1  0
  6  9  4  0
  7 24  4  0
  8 26  4  0
  8 28  1  0
  8 31  4  0
  9 30  4  0
 10 14  4  0
 10 30  4  0
 11 17  4  0
 12 19  4  0
 12 20  4  0
 12 30  1  0
 13 33  1  0
 15 32  1  0
 16 18  4  0
 16 31  4  0
 17 34  4  0
 18 23  1  0
 18 27  4  0
 20 21  4  0
 21 22  4  0
 21 28  1  0
 23 25  1  0
 24 34  4  0
 26 27  4  0
 29 32  1  0
 29 33  1  0
M  END
$$$$

 Created by Python create_sdf_string function

 34 37  0  0  0  0  0  0  0  0999 V2000
   11.1815   -3.1324   17.7917 C   0  0  0  0  0  0  0  0  0  0  0  0
   14.4576   -2.9066   14.2858 O   0  0  0  0  0  0  0  0  0  0  0  0
   10.5095   -4.2149   15.6623 O   0  0  0  0  0  0  0  0  0  0  0  0
   11.5187   -4.0862   23.8754 C   0  0  0  0  0  0  0  0  0  0  0  0
    2.5519   -8.2395   15.8200 C   0  0  0  0  0  0  0  0  0  0  0  0
   10.7743   -3.1676   23.4051 N   0  0  0  0  0  0  0  0  0  0  0  0
    2.6994   -6.8438   15.0762 C   0  0  0  0  0  0  0  0  0  0  0  0
    8.2516   -6.6141   17.1182 C   0  0  0  0  0  0  0  0  0  0  0  0
   10.5746   -3.2314   22.1063 C   0  0  0  0  0  0  0  0  0  0  0  0
   12.1070   -5.0840   21.6236 C   0  0  0  0  0  0  0  0  0  0  0  0
    1.3454   -8.8131   15.6005 C   0  0  0  0  0  0  0  0  0  0  0  0
   10.8432   -4.1085   19.7760 C   0  0  0  0  0  0  0  0  0  0  0  0
   12.4489   -2.7585   11.7783 C   0  0  0  0  0  0  0  0  0  0  0  0
   12.2302   -5.1845   23.1077 C   0  0  0  0  0  0  0  0  0  0  0  0
   11.4546   -4.0687   14.8951 C   0  0  0  0  0  0  0  0  0  0  0  0
    6.5339   -7.8419   17.7732 C   0  0  0  0  0  0  0  0  0  0  0  0
    0.2734   -8.3932   14.5196 C   0  0  0  0  0  0  0  0  0  0  0  0
    5.7719   -7.8167   16.6917 C   0  0  0  0  0  0  0  0  0  0  0  0
   10.5566   -5.3284   19.2245 C   0  0  0  0  0  0  0  0  0  0  0  0
    9.9761   -5.0990   17.6961 C   0  0  0  0  0  0  0  0  0  0  0  0
    4.6310   -8.5625   16.7092 O   0  0  0  0  0  0  0  0  0  0  0  0
    1.7790   -6.4435   14.3603 C   0  0  0  0  0  0  0  0  0  0  0  0
    3.5413   -8.6695   16.5400 C   0  0  0  0  0  0  0  0  0  0  0  0
    7.4868   -6.2548   15.8015 F   0  0  0  0  0  0  0  0  0  0  0  0
    6.1218   -6.9352   15.9773 C   0  0  0  0  0  0  0  0  0  0  0  0
   11.0753   -4.0227   21.3204 C   0  0  0  0  0  0  0  0  0  0  0  0
    7.8012   -7.6329   17.8770 C   0  0  0  0  0  0  0  0  0  0  0  0
   12.5728   -2.7792   14.9297 C   0  0  0  0  0  0  0  0  0  0  0  0
   13.4036   -3.5306   12.6113 S   0  0  0  0  0  0  0  0  0  0  0  0
    0.7438   -7.1829   14.1371 C   0  0  0  0  0  0  0  0  0  0  0  0
   11.3516   -2.9106   18.9610 He  0  0  0  0  0  0  0  0  0  0  0  0
   10.7564   -4.0359   17.0769 He  0  0  0  0  0  0  0  0  0  0  0  0
    9.4684   -6.0343   16.9521 He  0  0  0  0  0  0  0  0  0  0  0  0
   13.5219   -3.1387   13.7566 He  0  0  0  0  0  0  0  0  0  0  0  0
  2  8  2  0
  2 28  1  0
  3 15  1  0
  4  6  4  0
  4 14  4  0
  5  7  4  0
  5 18  1  0
  5 23  1  0
  6  9  4  0
  7 22  4  0
  8 24  4  0
  8 27  4  0
  8 30  3  0
  9 23  3  0
  9 26  3  0
 10 14  4  0
 10 15  4  0
 10 26  4  0
 11 17  4  0
 12 19  4  0
 12 26  1  0
 13 19  4  0
 13 29  1  0
 14 20  1  0
 15 28  1  0
 16 18  4  0
 16 27  4  0
 17 30  4  0
 18 21  1  0
 18 25  4  0
 19 20  4  0
 20 28  3  0
 21 23  1  0
 21 29  2  0
 22 30  4  0
 23 25  1  0
 24 25  4  0
M  END
$$$$

 Created by Python create_sdf_string function

 34 37  0  0  0  0  0  0  0  0999 V2000
   11.1861   -3.0007   17.7079 C   0  0  0  0  0  0  0  0  0  0  0  0
   14.6739   -2.8723   14.2745 O   0  0  0  0  0  0  0  0  0  0  0  0
   10.5040   -4.1583   15.6887 O   0  0  0  0  0  0  0  0  0  0  0  0
   11.5824   -4.1849   23.9339 C   0  0  0  0  0  0  0  0  0  0  0  0
    2.4812   -8.1569   15.7255 C   0  0  0  0  0  0  0  0  0  0  0  0
   10.7613   -3.2312   23.4460 N   0  0  0  0  0  0  0  0  0  0  0  0
    2.6953   -6.9143   15.1341 C   0  0  0  0  0  0  0  0  0  0  0  0
    8.2336   -6.6342   16.9812 C   0  0  0  0  0  0  0  0  0  0  0  0
   10.5455   -3.1745   22.0694 C   0  0  0  0  0  0  0  0  0  0  0  0
   11.9718   -5.0853   21.7439 C   0  0  0  0  0  0  0  0  0  0  0  0
    1.3379   -8.8560   15.5037 C   0  0  0  0  0  0  0  0  0  0  0  0
   10.9505   -4.0949   19.8066 C   0  0  0  0  0  0  0  0  0  0  0  0
   12.4447   -2.7617   11.7479 C   0  0  0  0  0  0  0  0  0  0  0  0
   12.2153   -5.0984   23.1277 C   0  0  0  0  0  0  0  0  0  0  0  0
   11.5610   -4.0720   14.8146 C   0  0  0  0  0  0  0  0  0  0  0  0
    6.5974   -8.0721   17.8133 C   0  0  0  0  0  0  0  0  0  0  0  0
    0.3796   -8.3213   14.6374 C   0  0  0  0  0  0  0  0  0  0  0  0
    5.8063   -7.8070   16.7754 C   0  0  0  0  0  0  0  0  0  0  0  0
   11.2851   -2.9818   19.0809 C   0  0  0  0  0  0  0  0  0  0  0  0
   10.3540   -5.1561   19.1136 C   0  0  0  0  0  0  0  0  0  0  0  0
   10.1474   -5.1430   17.7619 C   0  0  0  0  0  0  0  0  0  0  0  0
   10.6759   -4.0813   17.0803 C   0  0  0  0  0  0  0  0  0  0  0  0
    4.6236   -8.5190   16.6711 O   0  0  0  0  0  0  0  0  0  0  0  0
    1.7803   -6.4187   14.2836 C   0  0  0  0  0  0  0  0  0  0  0  0
    3.4955   -8.7440   16.6459 C   0  0  0  0  0  0  0  0  0  0  0  0
    7.4305   -6.3328   15.9272 C   0  0  0  0  0  0  0  0  0  0  0  0
    6.2227   -6.9184   15.8226 C   0  0  0  0  0  0  0  0  0  0  0  0
    9.5107   -6.1233   17.0248 O   0  0  0  0  0  0  0  0  0  0  0  0
   13.5882   -3.0784   13.8617 C   0  0  0  0  0  0  0  0  0  0  0  0
   11.1453   -4.1246   21.1699 C   0  0  0  0  0  0  0  0  0  0  0  0
    7.7848   -7.5001   17.9397 C   0  0  0  0  0  0  0  0  0  0  0  0
   12.4570   -2.9220   14.8569 C   0  0  0  0  0  0  0  0  0  0  0  0
   13.2816   -3.5549   12.6009 N   0  0  0  0  0  0  0  0  0  0  0  0
    0.6301   -7.1263   14.0480 C   0  0  0  0  0  0  0  0  0  0  0  0
  1 19  4  0
  1 22  4  0
  2 29  2  0
  3 15  1  0
  3 22  1  0
  4  6  4  0
  4 14  4  0
  5  7  4  0
  5 11  4  0
  5 25  1  0
  6  9  4  0
  7 24  4  0
  8 26  4  0
  8 28  1  0
  8 31  4  0
  9 30  4  0
 10 14  4  0
 10 30  4  0
 11 17  4  0
 12 19  4  0
 12 20  4  0
 12 30  1  0
 13 33  1  0
 15 32  1  0
 16 18  4  0
 16 31  4  0
 17 34  4  0
 18 23  1  0
 18 27  4  0
 20 21  4  0
 21 22  4  0
 21 28  1  0
 23 25  1  0
 24 34  4  0
 26 27  4  0
 29 32  1  0
 29 33  1  0
M  END
$$$$

 Created by Python create_sdf_string function

 34 49  0  0  0  0  0  0  0  0999 V2000
   11.3359   -3.0696   17.7188 C   0  0  0  0  0  0  0  0  0  0  0  0
   14.5382   -2.9217   14.2338 O   0  0  0  0  0  0  0  0  0  0  0  0
   10.4889   -4.1577   15.6399 O   0  0  0  0  0  0  0  0  0  0  0  0
    2.6475   -8.2253   15.6700 C   0  0  0  0  0  0  0  0  0  0  0  0
   10.8906   -3.3859   23.5195 N   0  0  0  0  0  0  0  0  0  0  0  0
    2.5841   -6.7303   15.2580 C   0  0  0  0  0  0  0  0  0  0  0  0
    8.1278   -6.6471   16.9591 C   0  0  0  0  0  0  0  0  0  0  0  0
   10.4692   -3.1490   22.1488 C   0  0  0  0  0  0  0  0  0  0  0  0
   12.0697   -5.1869   21.8791 C   0  0  0  0  0  0  0  0  0  0  0  0
    1.3634   -8.7446   15.4728 C   0  0  0  0  0  0  0  0  0  0  0  0
   10.9374   -4.0492   19.8686 C   0  0  0  0  0  0  0  0  0  0  0  0
   12.4328   -2.7660   11.6235 C   0  0  0  0  0  0  0  0  0  0  0  0
   12.2801   -5.1337   23.0285 C   0  0  0  0  0  0  0  0  0  0  0  0
   11.5593   -4.0910   14.7608 C   0  0  0  0  0  0  0  0  0  0  0  0
    6.5154   -8.0924   17.7767 C   0  0  0  0  0  0  0  0  0  0  0  0
    0.3738   -8.2873   14.6139 C   0  0  0  0  0  0  0  0  0  0  0  0
    5.8627   -7.8959   16.7034 C   0  0  0  0  0  0  0  0  0  0  0  0
   11.2126   -2.9448   19.1125 C   0  0  0  0  0  0  0  0  0  0  0  0
   10.4087   -5.2257   19.1815 C   0  0  0  0  0  0  0  0  0  0  0  0
   10.0432   -5.2002   17.8345 C   0  0  0  0  0  0  0  0  0  0  0  0
   10.4728   -4.1235   17.2095 C   0  0  0  0  0  0  0  0  0  0  0  0
    4.7407   -8.4891   16.6522 O   0  0  0  0  0  0  0  0  0  0  0  0
    1.7074   -6.4073   14.2577 C   0  0  0  0  0  0  0  0  0  0  0  0
    3.5944   -8.7393   16.5345 C   0  0  0  0  0  0  0  0  0  0  0  0
    7.4401   -6.1828   15.7720 C   0  0  0  0  0  0  0  0  0  0  0  0
    6.1399   -6.8020   15.8004 C   0  0  0  0  0  0  0  0  0  0  0  0
    9.6369   -6.0740   16.9470 O   0  0  0  0  0  0  0  0  0  0  0  0
   13.4841   -3.0480   13.8897 C   0  0  0  0  0  0  0  0  0  0  0  0
   11.2127   -4.0884   21.2404 C   0  0  0  0  0  0  0  0  0  0  0  0
    7.6561   -7.4447   18.0468 C   0  0  0  0  0  0  0  0  0  0  0  0
   12.4749   -2.9275   14.8223 C   0  0  0  0  0  0  0  0  0  0  0  0
   13.2384   -3.6192   12.5051 N   0  0  0  0  0  0  0  0  0  0  0  0
    0.6092   -7.2308   14.1173 C   0  0  0  0  0  0  0  0  0  0  0  0
   11.6076   -4.2279   23.8150 He  0  0  0  0  0  0  0  0  0  0  0  0
  1 22  3  0
  1 23  1  0
  2  3  1  0
  2 24  4  0
  2 28  2  0
  2 31  4  0
  3 14  1  0
  3 21  1  0
  4  6  4  0
  4 10  4  0
  4 24  1  0
  5  8  4  0
  5 29  3  0
  6  9  2  0
  6 13  3  0
  6 23  4  0
  6 29  2  0
  7 25  4  0
  7 27  1  0
  7 30  4  0
  9 13  4  0
  9 29  4  0
 10 16  4  0
 11 18  4  0
 11 19  4  0
 11 29  1  0
 13 26  4  0
 14 31  1  0
 15 17  4  0
 15 21  4  0
 15 30  4  0
 16 33  4  0
 17 22  1  0
 17 26  4  0
 17 29  1  0
 17 31  3  0
 18 33  1  0
 19 20  4  0
 20 27  1  0
 20 29  3  0
 22 24  1  0
 22 29  1  0
 23 33  4  0
 24 29  1  0
 25 26  4  0
 27 28  2  0
 27 29  2  0
 28 31  1  0
 28 32  1  0
M  END
$$$$

 Created by Python create_sdf_string function

 34 37  0  0  0  0  0  0  0  0999 V2000
   11.1767   -3.0289   17.7122 C   0  0  0  0  0  0  0  0  0  0  0  0
   14.6160   -2.8952   14.1866 O   0  0  0  0  0  0  0  0  0  0  0  0
   10.4698   -4.1790   15.7166 O   0  0  0  0  0  0  0  0  0  0  0  0
   11.6473   -4.2552   23.9147 C   0  0  0  0  0  0  0  0  0  0  0  0
    2.5035   -8.1099   15.6859 C   0  0  0  0  0  0  0  0  0  0  0  0
   10.8086   -3.3211   23.4750 N   0  0  0  0  0  0  0  0  0  0  0  0
    2.6636   -6.8454   15.1415 C   0  0  0  0  0  0  0  0  0  0  0  0
    8.1985   -6.6132   16.9806 C   0  0  0  0  0  0  0  0  0  0  0  0
   10.5449   -3.2073   22.1128 C   0  0  0  0  0  0  0  0  0  0  0  0
   11.9942   -5.1243   21.7358 C   0  0  0  0  0  0  0  0  0  0  0  0
    1.3872   -8.8387   15.4687 C   0  0  0  0  0  0  0  0  0  0  0  0
   10.9420   -4.1008   19.8535 C   0  0  0  0  0  0  0  0  0  0  0  0
   12.4555   -2.8001   11.6687 C   0  0  0  0  0  0  0  0  0  0  0  0
   12.2694   -5.1487   23.1037 C   0  0  0  0  0  0  0  0  0  0  0  0
   11.5303   -4.1074   14.8209 C   0  0  0  0  0  0  0  0  0  0  0  0
    6.5671   -8.0549   17.7788 C   0  0  0  0  0  0  0  0  0  0  0  0
    0.4190   -8.3176   14.6407 C   0  0  0  0  0  0  0  0  0  0  0  0
    5.8225   -7.7931   16.7095 C   0  0  0  0  0  0  0  0  0  0  0  0
   11.2727   -3.0152   19.0977 C   0  0  0  0  0  0  0  0  0  0  0  0
   10.3435   -5.1549   19.1645 C   0  0  0  0  0  0  0  0  0  0  0  0
   10.1069   -5.1552   17.8188 C   0  0  0  0  0  0  0  0  0  0  0  0
   10.6249   -4.1015   17.1182 C   0  0  0  0  0  0  0  0  0  0  0  0
    4.6615   -8.5232   16.5718 O   0  0  0  0  0  0  0  0  0  0  0  0
    1.7154   -6.3636   14.3255 C   0  0  0  0  0  0  0  0  0  0  0  0
    3.5401   -8.7278   16.5239 C   0  0  0  0  0  0  0  0  0  0  0  0
    7.4212   -6.2825   15.8904 C   0  0  0  0  0  0  0  0  0  0  0  0
    6.2161   -6.8830   15.7662 C   0  0  0  0  0  0  0  0  0  0  0  0
    9.4807   -6.1379   17.0606 O   0  0  0  0  0  0  0  0  0  0  0  0
   13.5285   -3.0971   13.8157 C   0  0  0  0  0  0  0  0  0  0  0  0
   11.1505   -4.1636   21.2010 C   0  0  0  0  0  0  0  0  0  0  0  0
    7.7383   -7.4608   17.9349 C   0  0  0  0  0  0  0  0  0  0  0  0
   12.3921   -2.9346   14.7877 C   0  0  0  0  0  0  0  0  0  0  0  0
   13.1850   -3.5524   12.5718 N   0  0  0  0  0  0  0  0  0  0  0  0
    0.5970   -7.1085   14.0671 C   0  0  0  0  0  0  0  0  0  0  0  0
  1 19  4  0
  1 22  4  0
  2 29  2  0
  3 15  1  0
  3 22  1  0
  4  6  4  0
  4 14  4  0
  5  7  4  0
  5 11  4  0
  5 25  1  0
  6  9  4  0
  7 24  4  0
  8 26  4  0
  8 28  1  0
  8 31  4  0
  9 30  4  0
 10 14  4  0
 10 30  4  0
 11 17  4  0
 12 19  4  0
 12 20  4  0
 12 30  1  0
 13 33  1  0
 15 32  1  0
 16 18  4  0
 16 31  4  0
 17 34  4  0
 18 23  1  0
 18 27  4  0
 20 21  4  0
 21 22  4  0
 21 28  1  0
 23 25  1  0
 24 34  4  0
 26 27  4  0
 29 32  1  0
 29 33  1  0
M  END
$$$$

 Created by Python create_sdf_string function

 34 45  0  0  0  0  0  0  0  0999 V2000
   11.0945   -3.1013   17.7120 C   0  0  0  0  0  0  0  0  0  0  0  0
   14.6567   -3.0385   14.2385 O   0  0  0  0  0  0  0  0  0  0  0  0
   10.4123   -3.9449   15.8132 O   0  0  0  0  0  0  0  0  0  0  0  0
   11.7745   -4.2153   23.9501 C   0  0  0  0  0  0  0  0  0  0  0  0
    2.5599   -8.2237   15.7700 C   0  0  0  0  0  0  0  0  0  0  0  0
   10.7836   -3.2825   23.5601 N   0  0  0  0  0  0  0  0  0  0  0  0
    2.6515   -6.8395   15.0709 C   0  0  0  0  0  0  0  0  0  0  0  0
    8.1434   -6.4595   16.9999 C   0  0  0  0  0  0  0  0  0  0  0  0
   10.5237   -3.2193   22.0655 C   0  0  0  0  0  0  0  0  0  0  0  0
   11.9533   -5.0876   21.6397 C   0  0  0  0  0  0  0  0  0  0  0  0
    1.3198   -8.8069   15.3426 C   0  0  0  0  0  0  0  0  0  0  0  0
   10.8904   -3.8422   19.7416 C   0  0  0  0  0  0  0  0  0  0  0  0
   12.4279   -2.7253   11.7485 C   0  0  0  0  0  0  0  0  0  0  0  0
   12.2510   -5.1717   23.1554 C   0  0  0  0  0  0  0  0  0  0  0  0
   11.4311   -4.2000   14.9460 C   0  0  0  0  0  0  0  0  0  0  0  0
    0.4160   -8.3276   14.6212 C   0  0  0  0  0  0  0  0  0  0  0  0
    5.7625   -7.7175   16.6706 C   0  0  0  0  0  0  0  0  0  0  0  0
   11.1775   -3.1383   19.1812 C   0  0  0  0  0  0  0  0  0  0  0  0
   10.3940   -5.2795   19.1656 C   0  0  0  0  0  0  0  0  0  0  0  0
   10.1380   -5.0470   17.8705 C   0  0  0  0  0  0  0  0  0  0  0  0
   10.6586   -4.2179   17.0987 C   0  0  0  0  0  0  0  0  0  0  0  0
    4.6810   -8.5849   16.5055 O   0  0  0  0  0  0  0  0  0  0  0  0
    1.8155   -6.4263   14.3051 P   0  0  0  0  0  0  0  0  0  0  0  0
    3.4652   -8.6481   16.5814 C   0  0  0  0  0  0  0  0  0  0  0  0
    7.4337   -6.2925   15.9915 C   0  0  0  0  0  0  0  0  0  0  0  0
    6.1890   -6.9472   15.8573 C   0  0  0  0  0  0  0  0  0  0  0  0
    9.4840   -6.2499   17.2124 O   0  0  0  0  0  0  0  0  0  0  0  0
   13.4271   -3.1491   13.8517 C   0  0  0  0  0  0  0  0  0  0  0  0
   11.1413   -4.1942   21.1342 C   0  0  0  0  0  0  0  0  0  0  0  0
   12.4267   -2.9773   14.7877 C   0  0  0  0  0  0  0  0  0  0  0  0
   13.2466   -3.6072   12.6447 N   0  0  0  0  0  0  0  0  0  0  0  0
    6.7002   -8.1448   17.7580 He  0  0  0  0  0  0  0  0  0  0  0  0
    7.7397   -7.4549   17.9564 He  0  0  0  0  0  0  0  0  0  0  0  0
    0.5954   -6.8946   14.0570 He  0  0  0  0  0  0  0  0  0  0  0  0
  1 18  4  0
  1 21  4  0
  2 21  3  0
  2 28  2  0
  3 21  1  0
  3 26  1  0
  4  6  4  0
  4 14  4  0
  4 15  1  0
  5  7  1  0
  5 11  4  0
  5 18  2  0
  5 24  1  0
  7 14  2  0
  7 23  2  0
  7 28  2  0
  8 25  4  0
  8 27  1  0
  9 12  3  0
  9 18  2  0
  9 24  1  0
  9 25  4  0
  9 29  4  0
 10 14  4  0
 10 29  4  0
 11 16  4  0
 12 18  4  0
 12 19  4  0
 12 29  1  0
 13 31  1  0
 14 26  3  0
 14 27  4  0
 14 28  4  0
 15 30  1  0
 17 24  2  0
 17 26  4  0
 18 23  3  0
 19 20  4  0
 20 21  4  0
 22 24  1  0
 22 29  1  0
 25 26  4  0
 25 27  2  0
 28 30  1  0
 28 31  1  0
M  END
$$$$

 Created by Python create_sdf_string function

 34 37  0  0  0  0  0  0  0  0999 V2000
   11.1121   -3.0213   17.7369 C   0  0  0  0  0  0  0  0  0  0  0  0
   14.6517   -3.0239   14.2238 O   0  0  0  0  0  0  0  0  0  0  0  0
   10.4255   -4.0778   15.7406 O   0  0  0  0  0  0  0  0  0  0  0  0
   11.6816   -4.2329   23.9467 C   0  0  0  0  0  0  0  0  0  0  0  0
    2.4829   -8.1446   15.6845 C   0  0  0  0  0  0  0  0  0  0  0  0
   10.8327   -3.2931   23.4845 N   0  0  0  0  0  0  0  0  0  0  0  0
    2.7073   -6.8752   15.1018 C   0  0  0  0  0  0  0  0  0  0  0  0
    8.2145   -6.6316   17.0335 C   0  0  0  0  0  0  0  0  0  0  0  0
   10.5456   -3.2252   22.1188 C   0  0  0  0  0  0  0  0  0  0  0  0
   11.9526   -5.1278   21.7325 C   0  0  0  0  0  0  0  0  0  0  0  0
    1.3296   -8.8329   15.4088 C   0  0  0  0  0  0  0  0  0  0  0  0
   10.9092   -4.1120   19.8470 C   0  0  0  0  0  0  0  0  0  0  0  0
   12.4512   -2.7394   11.7185 C   0  0  0  0  0  0  0  0  0  0  0  0
   12.2608   -5.1458   23.1083 C   0  0  0  0  0  0  0  0  0  0  0  0
   11.5200   -4.1394   14.8855 C   0  0  0  0  0  0  0  0  0  0  0  0
    6.5921   -8.1024   17.7586 C   0  0  0  0  0  0  0  0  0  0  0  0
    0.3857   -8.2695   14.5928 C   0  0  0  0  0  0  0  0  0  0  0  0
    5.8488   -7.8346   16.7111 C   0  0  0  0  0  0  0  0  0  0  0  0
   11.2058   -3.0006   19.0957 C   0  0  0  0  0  0  0  0  0  0  0  0
   10.3266   -5.1799   19.1514 C   0  0  0  0  0  0  0  0  0  0  0  0
   10.1124   -5.1699   17.8296 C   0  0  0  0  0  0  0  0  0  0  0  0
   10.5899   -4.0955   17.1262 C   0  0  0  0  0  0  0  0  0  0  0  0
    4.6894   -8.5728   16.5502 O   0  0  0  0  0  0  0  0  0  0  0  0
    1.7844   -6.3690   14.3031 C   0  0  0  0  0  0  0  0  0  0  0  0
    3.4481   -8.6790   16.6375 C   0  0  0  0  0  0  0  0  0  0  0  0
    7.4340   -6.2741   15.9745 C   0  0  0  0  0  0  0  0  0  0  0  0
    6.2357   -6.8931   15.8094 C   0  0  0  0  0  0  0  0  0  0  0  0
    9.4941   -6.1808   17.1481 O   0  0  0  0  0  0  0  0  0  0  0  0
   13.5259   -3.1740   13.8401 C   0  0  0  0  0  0  0  0  0  0  0  0
   11.1269   -4.1590   21.1937 C   0  0  0  0  0  0  0  0  0  0  0  0
    7.7678   -7.5168   17.9394 C   0  0  0  0  0  0  0  0  0  0  0  0
   12.3831   -2.9627   14.7763 C   0  0  0  0  0  0  0  0  0  0  0  0
   13.1830   -3.5598   12.5751 N   0  0  0  0  0  0  0  0  0  0  0  0
    0.6177   -7.0405   14.0554 C   0  0  0  0  0  0  0  0  0  0  0  0
  1 19  4  0
  1 22  4  0
  2 29  2  0
  3 15  1  0
  3 22  1  0
  4  6  4  0
  4 14  4  0
  5  7  4  0
  5 11  4  0
  5 25  1  0
  6  9  4  0
  7 24  4  0
  8 26  4  0
  8 28  1  0
  8 31  4  0
  9 30  4  0
 10 14  4  0
 10 30  4  0
 11 17  4  0
 12 19  4  0
 12 20  4  0
 12 30  1  0
 13 33  1  0
 15 32  1  0
 16 18  4  0
 16 31  4  0
 17 34  4  0
 18 23  1  0
 18 27  4  0
 20 21  4  0
 21 22  4  0
 21 28  1  0
 23 25  1  0
 24 34  4  0
 26 27  4  0
 29 32  1  0
 29 33  1  0
M  END
$$$$

 Created by Python create_sdf_string function

 34 47  0  0  0  0  0  0  0  0999 V2000
   11.1569   -3.0892   17.5963 C   0  0  0  0  0  0  0  0  0  0  0  0
   14.5268   -3.1466   14.3903 O   0  0  0  0  0  0  0  0  0  0  0  0
   10.5214   -3.9143   15.7073 O   0  0  0  0  0  0  0  0  0  0  0  0
   11.7332   -4.1170   23.9368 C   0  0  0  0  0  0  0  0  0  0  0  0
    2.5090   -8.2804   15.6157 C   0  0  0  0  0  0  0  0  0  0  0  0
   10.8090   -3.1944   23.4481 N   0  0  0  0  0  0  0  0  0  0  0  0
    2.6273   -7.0401   15.1332 C   0  0  0  0  0  0  0  0  0  0  0  0
    8.1684   -6.5796   17.0597 C   0  0  0  0  0  0  0  0  0  0  0  0
   10.4554   -3.2092   22.1956 C   0  0  0  0  0  0  0  0  0  0  0  0
   11.9250   -5.3098   21.7702 C   0  0  0  0  0  0  0  0  0  0  0  0
    1.2884   -8.8146   15.3302 C   0  0  0  0  0  0  0  0  0  0  0  0
   10.9862   -4.0214   19.8190 C   0  0  0  0  0  0  0  0  0  0  0  0
   12.4346   -2.7502   11.7649 C   0  0  0  0  0  0  0  0  0  0  0  0
   12.4449   -5.1312   23.1780 C   0  0  0  0  0  0  0  0  0  0  0  0
   11.3978   -4.2226   14.8029 C   0  0  0  0  0  0  0  0  0  0  0  0
    6.6090   -8.1177   17.8503 C   0  0  0  0  0  0  0  0  0  0  0  0
    0.2721   -8.2851   14.5788 C   0  0  0  0  0  0  0  0  0  0  0  0
    5.9003   -7.8857   16.5282 C   0  0  0  0  0  0  0  0  0  0  0  0
   10.3949   -5.1501   19.2023 C   0  0  0  0  0  0  0  0  0  0  0  0
   10.0923   -5.0911   17.7650 C   0  0  0  0  0  0  0  0  0  0  0  0
   10.6635   -4.1592   16.9581 C   0  0  0  0  0  0  0  0  0  0  0  0
    4.7246   -8.5050   16.6076 O   0  0  0  0  0  0  0  0  0  0  0  0
    1.7288   -6.5041   14.2051 C   0  0  0  0  0  0  0  0  0  0  0  0
    3.4952   -8.7520   16.6138 C   0  0  0  0  0  0  0  0  0  0  0  0
    7.4265   -6.2290   15.8982 C   0  0  0  0  0  0  0  0  0  0  0  0
    6.2167   -7.0339   15.6995 C   0  0  0  0  0  0  0  0  0  0  0  0
    9.5068   -6.1133   17.1206 O   0  0  0  0  0  0  0  0  0  0  0  0
   13.3663   -3.0955   13.7877 C   0  0  0  0  0  0  0  0  0  0  0  0
   11.0806   -4.2235   21.2216 C   0  0  0  0  0  0  0  0  0  0  0  0
    7.8481   -7.5153   18.0915 C   0  0  0  0  0  0  0  0  0  0  0  0
   12.4052   -2.9479   14.7207 C   0  0  0  0  0  0  0  0  0  0  0  0
   13.1423   -3.5794   12.6835 N   0  0  0  0  0  0  0  0  0  0  0  0
    0.6803   -7.0118   14.0055 C   0  0  0  0  0  0  0  0  0  0  0  0
   11.1860   -3.1416   19.1420 He  0  0  0  0  0  0  0  0  0  0  0  0
  1 13  1  0
  1 19  3  0
  1 21  4  0
  1 23  1  0
  2 28  2  0
  3 15  1  0
  3 21  1  0
  3 28  2  0
  4  6  4  0
  4  7  1  0
  4 14  4  0
  5  7  4  0
  5 11  4  0
  5 24  1  0
  7 12  3  0
  7 23  4  0
  7 28  2  0
  8 25  4  0
  8 27  1  0
  8 30  4  0
  9 29  4  0
 10 14  4  0
 10 21  1  0
 10 29  4  0
 11 17  4  0
 12 19  4  0
 12 21  2  0
 12 29  1  0
 13 32  1  0
 15 31  1  0
 16 18  4  0
 16 30  4  0
 17 31  4  0
 17 33  4  0
 18 22  1  0
 18 26  4  0
 19 20  4  0
 20 21  4  0
 20 27  1  0
 22 24  1  0
 23 29  3  0
 23 33  4  0
 25 26  4  0
 26 29  4  0
 26 32  4  0
 28 31  1  0
 28 32  1  0
M  END
$$$$

 Created by Python create_sdf_string function

 34 37  0  0  0  0  0  0  0  0999 V2000
   11.1658   -3.0553   17.7097 C   0  0  0  0  0  0  0  0  0  0  0  0
   14.5461   -3.1155   14.2996 O   0  0  0  0  0  0  0  0  0  0  0  0
   10.4447   -4.0464   15.7046 O   0  0  0  0  0  0  0  0  0  0  0  0
   11.7511   -4.1591   23.9449 C   0  0  0  0  0  0  0  0  0  0  0  0
    2.4612   -8.1872   15.6253 C   0  0  0  0  0  0  0  0  0  0  0  0
   10.8426   -3.2558   23.4789 N   0  0  0  0  0  0  0  0  0  0  0  0
    2.7000   -6.9940   15.0510 C   0  0  0  0  0  0  0  0  0  0  0  0
    8.2107   -6.6145   17.0221 C   0  0  0  0  0  0  0  0  0  0  0  0
   10.5178   -3.2485   22.1199 C   0  0  0  0  0  0  0  0  0  0  0  0
   11.9352   -5.1826   21.7792 C   0  0  0  0  0  0  0  0  0  0  0  0
    1.2846   -8.8538   15.3830 C   0  0  0  0  0  0  0  0  0  0  0  0
   10.9114   -4.1418   19.8435 C   0  0  0  0  0  0  0  0  0  0  0  0
   12.4510   -2.7650   11.7021 C   0  0  0  0  0  0  0  0  0  0  0  0
   12.3240   -5.1378   23.1510 C   0  0  0  0  0  0  0  0  0  0  0  0
   11.4729   -4.1497   14.8154 C   0  0  0  0  0  0  0  0  0  0  0  0
    6.6172   -8.1238   17.7872 C   0  0  0  0  0  0  0  0  0  0  0  0
    0.3426   -8.2895   14.5728 C   0  0  0  0  0  0  0  0  0  0  0  0
    5.8839   -7.8699   16.7046 C   0  0  0  0  0  0  0  0  0  0  0  0
   11.2572   -3.0519   19.0750 C   0  0  0  0  0  0  0  0  0  0  0  0
   10.3202   -5.1842   19.1340 C   0  0  0  0  0  0  0  0  0  0  0  0
   10.0988   -5.1501   17.7914 C   0  0  0  0  0  0  0  0  0  0  0  0
   10.6189   -4.0954   17.0921 C   0  0  0  0  0  0  0  0  0  0  0  0
    4.6800   -8.5620   16.5781 O   0  0  0  0  0  0  0  0  0  0  0  0
    1.7779   -6.4295   14.2343 C   0  0  0  0  0  0  0  0  0  0  0  0
    3.4668   -8.7667   16.5434 C   0  0  0  0  0  0  0  0  0  0  0  0
    7.4601   -6.3227   15.9252 C   0  0  0  0  0  0  0  0  0  0  0  0
    6.2923   -6.9823   15.7555 C   0  0  0  0  0  0  0  0  0  0  0  0
    9.4446   -6.1044   17.1182 O   0  0  0  0  0  0  0  0  0  0  0  0
   13.4459   -3.1842   13.8404 C   0  0  0  0  0  0  0  0  0  0  0  0
   11.1120   -4.1910   21.2396 C   0  0  0  0  0  0  0  0  0  0  0  0
    7.7869   -7.4918   17.9744 C   0  0  0  0  0  0  0  0  0  0  0  0
   12.2980   -2.9783   14.7295 C   0  0  0  0  0  0  0  0  0  0  0  0
   13.1338   -3.5160   12.5845 N   0  0  0  0  0  0  0  0  0  0  0  0
    0.5910   -7.0769   13.9974 C   0  0  0  0  0  0  0  0  0  0  0  0
  1 19  4  0
  1 22  4  0
  2 29  2  0
  3 15  1  0
  3 22  1  0
  4  6  4  0
  4 14  4  0
  5  7  4  0
  5 11  4  0
  5 25  1  0
  6  9  4  0
  7 24  4  0
  8 26  4  0
  8 28  1  0
  8 31  4  0
  9 30  4  0
 10 14  4  0
 10 30  4  0
 11 17  4  0
 12 19  4  0
 12 20  4  0
 12 30  1  0
 13 33  1  0
 15 32  1  0
 16 18  4  0
 16 31  4  0
 17 34  4  0
 18 23  1  0
 18 27  4  0
 20 21  4  0
 21 22  4  0
 21 28  1  0
 23 25  1  0
 24 34  4  0
 26 27  4  0
 29 32  1  0
 29 33  1  0
M  END
$$$$

 Created by Python create_sdf_string function

 34 48  0  0  0  0  0  0  0  0999 V2000
   11.1411   -3.1030   17.6880 C   0  0  0  0  0  0  0  0  0  0  0  0
   14.6204   -3.2960   14.3198 O   0  0  0  0  0  0  0  0  0  0  0  0
   10.3925   -4.0356   15.7006 O   0  0  0  0  0  0  0  0  0  0  0  0
   11.9134   -4.2544   23.9259 C   0  0  0  0  0  0  0  0  0  0  0  0
    2.4831   -8.1071   15.6126 C   0  0  0  0  0  0  0  0  0  0  0  0
   10.6480   -3.3446   23.4644 N   0  0  0  0  0  0  0  0  0  0  0  0
    2.7085   -6.9217   15.0521 C   0  0  0  0  0  0  0  0  0  0  0  0
    8.2037   -6.6437   17.1122 C   0  0  0  0  0  0  0  0  0  0  0  0
   10.6396   -3.3462   22.2005 C   0  0  0  0  0  0  0  0  0  0  0  0
   11.9299   -5.1579   21.8086 C   0  0  0  0  0  0  0  0  0  0  0  0
    1.3319   -8.7962   15.3335 C   0  0  0  0  0  0  0  0  0  0  0  0
   10.8903   -4.1632   19.7679 C   0  0  0  0  0  0  0  0  0  0  0  0
   12.4341   -2.6937   11.7076 C   0  0  0  0  0  0  0  0  0  0  0  0
   12.3270   -5.1655   23.1248 C   0  0  0  0  0  0  0  0  0  0  0  0
   11.5099   -4.1774   14.9263 C   0  0  0  0  0  0  0  0  0  0  0  0
    6.7491   -8.1266   17.8068 C   0  0  0  0  0  0  0  0  0  0  0  0
    0.3176   -8.2086   14.4914 C   0  0  0  0  0  0  0  0  0  0  0  0
    5.8700   -7.8294   16.8785 C   0  0  0  0  0  0  0  0  0  0  0  0
   11.1857   -3.0384   19.1404 C   0  0  0  0  0  0  0  0  0  0  0  0
   10.2986   -5.2873   19.1757 C   0  0  0  0  0  0  0  0  0  0  0  0
    9.9868   -5.2067   17.6460 C   0  0  0  0  0  0  0  0  0  0  0  0
   10.7339   -4.2174   17.1780 C   0  0  0  0  0  0  0  0  0  0  0  0
    4.6376   -8.6175   16.6892 O   0  0  0  0  0  0  0  0  0  0  0  0
    1.8103   -6.4210   14.0765 C   0  0  0  0  0  0  0  0  0  0  0  0
    3.4751   -8.9299   16.5888 C   0  0  0  0  0  0  0  0  0  0  0  0
    7.4216   -6.3007   15.8138 C   0  0  0  0  0  0  0  0  0  0  0  0
    6.4143   -6.8784   15.8389 C   0  0  0  0  0  0  0  0  0  0  0  0
    9.5456   -6.0296   17.2088 O   0  0  0  0  0  0  0  0  0  0  0  0
   13.4423   -3.1669   13.8922 C   0  0  0  0  0  0  0  0  0  0  0  0
   11.1477   -4.3480   21.1638 C   0  0  0  0  0  0  0  0  0  0  0  0
    7.7878   -7.5558   17.9157 C   0  0  0  0  0  0  0  0  0  0  0  0
   12.3476   -2.9158   14.6512 C   0  0  0  0  0  0  0  0  0  0  0  0
   13.2056   -3.5317   12.5537 N   0  0  0  0  0  0  0  0  0  0  0  0
    0.5116   -6.9482   13.9520 C   0  0  0  0  0  0  0  0  0  0  0  0
  1 19  4  0
  1 22  4  0
  2 29  2  0
  2 31  2  0
  3  8  4  0
  3 15  1  0
  3 22  1  0
  4  6  4  0
  4 14  4  0
  5  7  4  0
  5 11  4  0
  5 25  1  0
  6  9  4  0
  7 24  4  0
  8 26  4  0
  8 28  1  0
  8 31  4  0
  9 30  4  0
 10 14  4  0
 10 30  4  0
 11 17  4  0
 11 34  2  0
 12 17  4  0
 12 19  4  0
 12 20  4  0
 14 23  1  0
 14 32  2  0
 15 24  2  0
 15 32  1  0
 16 18  4  0
 16 29  4  0
 16 31  4  0
 17 23  3  0
 17 34  4  0
 18 23  1  0
 18 27  4  0
 18 28  3  0
 19 29  2  0
 20 21  4  0
 21 22  4  0
 21 28  1  0
 23 25  1  0
 24 28  1  0
 24 34  4  0
 25 32  1  0
 26 27  4  0
 29 32  1  0
 29 33  1  0
M  END
$$$$

 Created by Python create_sdf_string function

 34 37  0  0  0  0  0  0  0  0999 V2000
   11.1626   -3.0716   17.7423 C   0  0  0  0  0  0  0  0  0  0  0  0
   14.5723   -3.2688   14.2884 O   0  0  0  0  0  0  0  0  0  0  0  0
   10.4460   -4.0992   15.7167 O   0  0  0  0  0  0  0  0  0  0  0  0
   11.7575   -4.2456   23.9522 C   0  0  0  0  0  0  0  0  0  0  0  0
    2.4557   -8.1405   15.5745 C   0  0  0  0  0  0  0  0  0  0  0  0
   10.8440   -3.3645   23.4854 N   0  0  0  0  0  0  0  0  0  0  0  0
    2.7150   -6.9281   14.9836 C   0  0  0  0  0  0  0  0  0  0  0  0
    8.2312   -6.6687   17.0085 C   0  0  0  0  0  0  0  0  0  0  0  0
   10.5635   -3.3457   22.1235 C   0  0  0  0  0  0  0  0  0  0  0  0
   11.9751   -5.1900   21.7685 C   0  0  0  0  0  0  0  0  0  0  0  0
    1.2731   -8.7815   15.3360 C   0  0  0  0  0  0  0  0  0  0  0  0
   10.9031   -4.1869   19.8427 C   0  0  0  0  0  0  0  0  0  0  0  0
   12.4553   -2.7240   11.7026 C   0  0  0  0  0  0  0  0  0  0  0  0
   12.3267   -5.1765   23.1276 C   0  0  0  0  0  0  0  0  0  0  0  0
   11.5691   -4.1573   14.9109 C   0  0  0  0  0  0  0  0  0  0  0  0
    6.6412   -8.1498   17.8013 C   0  0  0  0  0  0  0  0  0  0  0  0
    0.3383   -8.1997   14.5177 C   0  0  0  0  0  0  0  0  0  0  0  0
    5.8734   -7.8514   16.7714 C   0  0  0  0  0  0  0  0  0  0  0  0
   11.2341   -3.0704   19.1130 C   0  0  0  0  0  0  0  0  0  0  0  0
   10.3032   -5.2165   19.1506 C   0  0  0  0  0  0  0  0  0  0  0  0
   10.0957   -5.1858   17.7946 C   0  0  0  0  0  0  0  0  0  0  0  0
   10.6280   -4.1185   17.1212 C   0  0  0  0  0  0  0  0  0  0  0  0
    4.6356   -8.5014   16.6695 O   0  0  0  0  0  0  0  0  0  0  0  0
    1.8149   -6.3624   14.1529 C   0  0  0  0  0  0  0  0  0  0  0  0
    3.4185   -8.8198   16.5165 C   0  0  0  0  0  0  0  0  0  0  0  0
    7.4613   -6.3323   15.9299 C   0  0  0  0  0  0  0  0  0  0  0  0
    6.2618   -6.9527   15.8389 C   0  0  0  0  0  0  0  0  0  0  0  0
    9.4567   -6.1353   17.0907 O   0  0  0  0  0  0  0  0  0  0  0  0
   13.4705   -3.2250   13.8175 C   0  0  0  0  0  0  0  0  0  0  0  0
   11.1433   -4.2493   21.2065 C   0  0  0  0  0  0  0  0  0  0  0  0
    7.8312   -7.5630   17.9506 C   0  0  0  0  0  0  0  0  0  0  0  0
   12.2891   -2.9291   14.6573 C   0  0  0  0  0  0  0  0  0  0  0  0
   13.2051   -3.4814   12.5401 N   0  0  0  0  0  0  0  0  0  0  0  0
    0.5870   -6.9815   13.9316 C   0  0  0  0  0  0  0  0  0  0  0  0
  1 19  4  0
  1 22  4  0
  2 29  2  0
  3 15  1  0
  3 22  1  0
  4  6  4  0
  4 14  4  0
  5  7  4  0
  5 11  4  0
  5 25  1  0
  6  9  4  0
  7 24  4  0
  8 26  4  0
  8 28  1  0
  8 31  4  0
  9 30  4  0
 10 14  4  0
 10 30  4  0
 11 17  4  0
 12 19  4  0
 12 20  4  0
 12 30  1  0
 13 33  1  0
 15 32  1  0
 16 18  4  0
 16 31  4  0
 17 34  4  0
 18 23  1  0
 18 27  4  0
 20 21  4  0
 21 22  4  0
 21 28  1  0
 23 25  1  0
 24 34  4  0
 26 27  4  0
 29 32  1  0
 29 33  1  0
M  END
$$$$

 Created by Python create_sdf_string function

 34 49  0  0  0  0  0  0  0  0999 V2000
   11.1854   -2.9714   17.7077 C   0  0  0  0  0  0  0  0  0  0  0  0
   14.5478   -3.1975   14.2291 O   0  0  0  0  0  0  0  0  0  0  0  0
   10.4863   -4.1006   15.7633 O   0  0  0  0  0  0  0  0  0  0  0  0
   11.7101   -4.2781   24.0284 C   0  0  0  0  0  0  0  0  0  0  0  0
    2.4553   -8.2120   15.6112 C   0  0  0  0  0  0  0  0  0  0  0  0
   10.8403   -3.2297   23.4859 N   0  0  0  0  0  0  0  0  0  0  0  0
    2.8259   -6.9851   14.9413 C   0  0  0  0  0  0  0  0  0  0  0  0
    8.1891   -6.5544   17.1044 C   0  0  0  0  0  0  0  0  0  0  0  0
   10.4875   -3.2620   22.1792 C   0  0  0  0  0  0  0  0  0  0  0  0
   11.9716   -5.1159   21.6155 C   0  0  0  0  0  0  0  0  0  0  0  0
    1.2228   -8.8659   15.4136 C   0  0  0  0  0  0  0  0  0  0  0  0
   10.8787   -4.1895   19.8152 C   0  0  0  0  0  0  0  0  0  0  0  0
   12.3883   -2.7122   11.7598 C   0  0  0  0  0  0  0  0  0  0  0  0
   12.3862   -5.1017   23.1274 C   0  0  0  0  0  0  0  0  0  0  0  0
   11.6188   -4.1373   14.8425 C   0  0  0  0  0  0  0  0  0  0  0  0
    6.5204   -8.1901   17.8229 C   0  0  0  0  0  0  0  0  0  0  0  0
    0.3881   -8.1447   14.5307 C   0  0  0  0  0  0  0  0  0  0  0  0
    5.8495   -7.7272   16.6774 C   0  0  0  0  0  0  0  0  0  0  0  0
   11.3377   -2.9854   19.0619 C   0  0  0  0  0  0  0  0  0  0  0  0
   10.2814   -5.2203   19.0889 C   0  0  0  0  0  0  0  0  0  0  0  0
   10.0878   -5.0804   17.7142 C   0  0  0  0  0  0  0  0  0  0  0  0
   10.6557   -4.2402   17.1037 C   0  0  0  0  0  0  0  0  0  0  0  0
    4.6184   -8.4897   16.6386 O   0  0  0  0  0  0  0  0  0  0  0  0
    1.8822   -6.3398   14.2277 C   0  0  0  0  0  0  0  0  0  0  0  0
    3.3549   -8.8206   16.4788 C   0  0  0  0  0  0  0  0  0  0  0  0
    7.4791   -6.3916   15.8428 C   0  0  0  0  0  0  0  0  0  0  0  0
    6.3028   -7.0078   15.7937 C   0  0  0  0  0  0  0  0  0  0  0  0
    9.3855   -6.0506   17.1261 O   0  0  0  0  0  0  0  0  0  0  0  0
   13.3606   -3.2429   13.8021 C   0  0  0  0  0  0  0  0  0  0  0  0
   11.1305   -4.2498   21.0905 C   0  0  0  0  0  0  0  0  0  0  0  0
    7.8181   -7.5695   17.9570 C   0  0  0  0  0  0  0  0  0  0  0  0
   12.2412   -2.9236   14.6412 C   0  0  0  0  0  0  0  0  0  0  0  0
   13.2001   -3.5131   12.5684 N   0  0  0  0  0  0  0  0  0  0  0  0
    0.6037   -7.1637   13.9210 C   0  0  0  0  0  0  0  0  0  0  0  0
  1 19  4  0
  1 22  4  0
  2 29  2  0
  3  6  4  0
  3 15  1  0
  3 22  1  0
  4  6  4  0
  4 14  4  0
  4 20  3  0
  4 24  3  0
  4 32  4  0
  5  7  4  0
  5 11  4  0
  5 25  1  0
  5 27  3  0
  7  8  4  0
  7 24  4  0
  8 26  4  0
  8 28  1  0
  8 31  4  0
  8 34  2  0
  9 30  4  0
 10 14  4  0
 10 30  4  0
 11 17  4  0
 12 19  4  0
 12 20  4  0
 12 29  4  0
 12 30  1  0
 13 27  4  0
 13 33  1  0
 14 19  1  0
 14 22  1  0
 15 23  1  0
 15 32  1  0
 15 33  4  0
 16 18  4  0
 16 31  4  0
 17 34  4  0
 18 23  1  0
 18 27  4  0
 19 24  4  0
 20 21  4  0
 21 22  4  0
 21 28  1  0
 24 34  4  0
 25 31  1  0
 29 32  1  0
 29 33  1  0
M  END
$$$$

 Created by Python create_sdf_string function

 34 37  0  0  0  0  0  0  0  0999 V2000
   11.2075   -3.0300   17.6989 C   0  0  0  0  0  0  0  0  0  0  0  0
   14.5266   -3.1885   14.2146 O   0  0  0  0  0  0  0  0  0  0  0  0
   10.5084   -4.1354   15.6999 O   0  0  0  0  0  0  0  0  0  0  0  0
   11.7223   -4.2564   23.9476 C   0  0  0  0  0  0  0  0  0  0  0  0
    2.4519   -8.1788   15.5814 C   0  0  0  0  0  0  0  0  0  0  0  0
   10.8268   -3.3296   23.4786 N   0  0  0  0  0  0  0  0  0  0  0  0
    2.7604   -6.9777   14.9721 C   0  0  0  0  0  0  0  0  0  0  0  0
    8.1944   -6.6683   17.0185 C   0  0  0  0  0  0  0  0  0  0  0  0
   10.5308   -3.2902   22.1088 C   0  0  0  0  0  0  0  0  0  0  0  0
   12.0073   -5.1298   21.7052 C   0  0  0  0  0  0  0  0  0  0  0  0
    1.2495   -8.8092   15.3857 C   0  0  0  0  0  0  0  0  0  0  0  0
   10.9150   -4.1370   19.8014 C   0  0  0  0  0  0  0  0  0  0  0  0
   12.3828   -2.7126   11.7066 C   0  0  0  0  0  0  0  0  0  0  0  0
   12.3445   -5.1558   23.0882 C   0  0  0  0  0  0  0  0  0  0  0  0
   11.5739   -4.1767   14.8876 C   0  0  0  0  0  0  0  0  0  0  0  0
    6.5576   -8.1344   17.7906 C   0  0  0  0  0  0  0  0  0  0  0  0
    0.3623   -8.2042   14.5380 C   0  0  0  0  0  0  0  0  0  0  0  0
    5.8329   -7.8345   16.7199 C   0  0  0  0  0  0  0  0  0  0  0  0
   11.2903   -3.0256   19.0770 C   0  0  0  0  0  0  0  0  0  0  0  0
   10.2815   -5.1620   19.1090 C   0  0  0  0  0  0  0  0  0  0  0  0
   10.0784   -5.1329   17.7728 C   0  0  0  0  0  0  0  0  0  0  0  0
   10.6480   -4.0916   17.0880 C   0  0  0  0  0  0  0  0  0  0  0  0
    4.6005   -8.4708   16.6392 O   0  0  0  0  0  0  0  0  0  0  0  0
    1.8619   -6.3846   14.1524 C   0  0  0  0  0  0  0  0  0  0  0  0
    3.4040   -8.8086   16.4850 C   0  0  0  0  0  0  0  0  0  0  0  0
    7.4676   -6.3892   15.9042 C   0  0  0  0  0  0  0  0  0  0  0  0
    6.2749   -6.9844   15.7625 C   0  0  0  0  0  0  0  0  0  0  0  0
    9.4110   -6.0867   17.1294 O   0  0  0  0  0  0  0  0  0  0  0  0
   13.4326   -3.2003   13.7694 C   0  0  0  0  0  0  0  0  0  0  0  0
   11.1395   -4.1919   21.1837 C   0  0  0  0  0  0  0  0  0  0  0  0
    7.7484   -7.5461   17.9558 C   0  0  0  0  0  0  0  0  0  0  0  0
   12.2543   -2.9266   14.6029 C   0  0  0  0  0  0  0  0  0  0  0  0
   13.1601   -3.4755   12.4973 N   0  0  0  0  0  0  0  0  0  0  0  0
    0.6604   -7.0222   13.9363 C   0  0  0  0  0  0  0  0  0  0  0  0
  1 19  4  0
  1 22  4  0
  2 29  2  0
  3 15  1  0
  3 22  1  0
  4  6  4  0
  4 14  4  0
  5  7  4  0
  5 11  4  0
  5 25  1  0
  6  9  4  0
  7 24  4  0
  8 26  4  0
  8 28  1  0
  8 31  4  0
  9 30  4  0
 10 14  4  0
 10 30  4  0
 11 17  4  0
 12 19  4  0
 12 20  4  0
 12 30  1  0
 13 33  1  0
 15 32  1  0
 16 18  4  0
 16 31  4  0
 17 34  4  0
 18 23  1  0
 18 27  4  0
 20 21  4  0
 21 22  4  0
 21 28  1  0
 23 25  1  0
 24 34  4  0
 26 27  4  0
 29 32  1  0
 29 33  1  0
M  END
$$$$

 Created by Python create_sdf_string function

 34 46  0  0  0  0  0  0  0  0999 V2000
   11.1312   -3.1013   17.7351 C   0  0  0  0  0  0  0  0  0  0  0  0
   14.6057   -3.2254   14.2178 O   0  0  0  0  0  0  0  0  0  0  0  0
   10.5331   -4.2582   15.7055 O   0  0  0  0  0  0  0  0  0  0  0  0
   11.7319   -4.4067   24.0088 C   0  0  0  0  0  0  0  0  0  0  0  0
    2.3638   -8.2269   15.5512 C   0  0  0  0  0  0  0  0  0  0  0  0
   10.7505   -3.3605   23.5035 N   0  0  0  0  0  0  0  0  0  0  0  0
    2.7386   -6.9408   14.9236 C   0  0  0  0  0  0  0  0  0  0  0  0
    8.1589   -6.6764   16.9976 C   0  0  0  0  0  0  0  0  0  0  0  0
   10.5776   -3.2522   22.1191 C   0  0  0  0  0  0  0  0  0  0  0  0
   11.9530   -5.0735   21.8092 C   0  0  0  0  0  0  0  0  0  0  0  0
   10.9282   -4.0873   19.8173 C   0  0  0  0  0  0  0  0  0  0  0  0
   12.3516   -2.7479   11.6727 C   0  0  0  0  0  0  0  0  0  0  0  0
   12.3376   -5.0888   23.1082 C   0  0  0  0  0  0  0  0  0  0  0  0
   11.6703   -4.1331   14.9648 C   0  0  0  0  0  0  0  0  0  0  0  0
    6.5303   -8.1282   17.7629 C   0  0  0  0  0  0  0  0  0  0  0  0
    0.3516   -8.1474   14.6609 C   0  0  0  0  0  0  0  0  0  0  0  0
    5.8396   -7.8469   16.7573 C   0  0  0  0  0  0  0  0  0  0  0  0
   11.3451   -2.9835   19.0827 C   0  0  0  0  0  0  0  0  0  0  0  0
   10.3276   -5.1379   19.1218 C   0  0  0  0  0  0  0  0  0  0  0  0
   10.2166   -5.0579   17.7578 O   0  0  0  0  0  0  0  0  0  0  0  0
   10.5823   -4.1404   17.0007 C   0  0  0  0  0  0  0  0  0  0  0  0
    4.7670   -8.4731   16.6596 O   0  0  0  0  0  0  0  0  0  0  0  0
    1.7828   -6.3725   14.2582 C   0  0  0  0  0  0  0  0  0  0  0  0
    3.3146   -8.8617   16.3757 C   0  0  0  0  0  0  0  0  0  0  0  0
    7.4576   -6.4806   15.9930 C   0  0  0  0  0  0  0  0  0  0  0  0
    6.1218   -6.9528   15.8688 C   0  0  0  0  0  0  0  0  0  0  0  0
    9.5016   -6.1209   17.0228 O   0  0  0  0  0  0  0  0  0  0  0  0
   13.5220   -3.1754   13.6375 C   0  0  0  0  0  0  0  0  0  0  0  0
   11.0860   -4.1493   21.2309 C   0  0  0  0  0  0  0  0  0  0  0  0
    7.6677   -7.5222   18.0367 C   0  0  0  0  0  0  0  0  0  0  0  0
   12.2849   -3.0818   14.6233 C   0  0  0  0  0  0  0  0  0  0  0  0
   13.0506   -3.3912   12.4694 N   0  0  0  0  0  0  0  0  0  0  0  0
    0.7655   -7.0405   13.9148 C   0  0  0  0  0  0  0  0  0  0  0  0
    1.2374   -8.7972   15.4402 He  0  0  0  0  0  0  0  0  0  0  0  0
  1 18  4  0
  1 21  4  0
  2 28  2  0
  3 14  1  0
  3 21  1  0
  4  6  4  0
  4 13  4  0
  4 18  2  0
  5  7  4  0
  5 24  1  0
  6  9  4  0
  7 23  4  0
  7 28  1  0
  8 25  4  0
  8 27  1  0
  8 30  4  0
  9 29  4  0
 10 13  4  0
 10 15  3  0
 10 29  4  0
 11 18  4  0
 11 19  4  0
 11 29  1  0
 12 25  1  0
 12 32  1  0
 13 31  2  0
 14 24  3  0
 14 31  1  0
 15 17  4  0
 15 20  3  0
 15 30  4  0
 16 27  1  0
 16 33  4  0
 17 22  1  0
 17 26  4  0
 18 25  2  0
 19 20  4  0
 20 21  4  0
 20 27  1  0
 20 33  1  0
 22 24  1  0
 23 33  4  0
 25 26  4  0
 25 30  1  0
 28 31  1  0
 28 32  1  0
M  END
$$$$

 Created by Python create_sdf_string function

 34 37  0  0  0  0  0  0  0  0999 V2000
   11.1831   -3.0396   17.6996 C   0  0  0  0  0  0  0  0  0  0  0  0
   14.5692   -3.2170   14.1291 O   0  0  0  0  0  0  0  0  0  0  0  0
   10.5326   -4.2529   15.7018 O   0  0  0  0  0  0  0  0  0  0  0  0
   11.6608   -4.3113   23.9635 C   0  0  0  0  0  0  0  0  0  0  0  0
    2.4262   -8.1619   15.5550 C   0  0  0  0  0  0  0  0  0  0  0  0
   10.7879   -3.3833   23.4911 N   0  0  0  0  0  0  0  0  0  0  0  0
    2.7384   -6.9628   14.9733 C   0  0  0  0  0  0  0  0  0  0  0  0
    8.2009   -6.6828   17.0233 C   0  0  0  0  0  0  0  0  0  0  0  0
   10.5588   -3.2783   22.1304 C   0  0  0  0  0  0  0  0  0  0  0  0
   11.9957   -5.1067   21.7443 C   0  0  0  0  0  0  0  0  0  0  0  0
    1.2204   -8.7602   15.3941 C   0  0  0  0  0  0  0  0  0  0  0  0
   10.9340   -4.1096   19.8214 C   0  0  0  0  0  0  0  0  0  0  0  0
   12.3575   -2.7346   11.6225 C   0  0  0  0  0  0  0  0  0  0  0  0
   12.3013   -5.1643   23.1013 C   0  0  0  0  0  0  0  0  0  0  0  0
   11.6851   -4.2320   14.9445 C   0  0  0  0  0  0  0  0  0  0  0  0
    6.5589   -8.1115   17.8269 C   0  0  0  0  0  0  0  0  0  0  0  0
    0.3230   -8.1543   14.5746 C   0  0  0  0  0  0  0  0  0  0  0  0
    5.8186   -7.8491   16.7654 C   0  0  0  0  0  0  0  0  0  0  0  0
   11.2840   -3.0061   19.0638 C   0  0  0  0  0  0  0  0  0  0  0  0
   10.3233   -5.1436   19.1149 C   0  0  0  0  0  0  0  0  0  0  0  0
   10.1257   -5.1367   17.7962 C   0  0  0  0  0  0  0  0  0  0  0  0
   10.6521   -4.1165   17.0940 C   0  0  0  0  0  0  0  0  0  0  0  0
    4.6108   -8.5297   16.6565 O   0  0  0  0  0  0  0  0  0  0  0  0
    1.8385   -6.3747   14.1734 C   0  0  0  0  0  0  0  0  0  0  0  0
    3.4020   -8.8566   16.4041 C   0  0  0  0  0  0  0  0  0  0  0  0
    7.4228   -6.4034   15.9517 C   0  0  0  0  0  0  0  0  0  0  0  0
    6.2292   -6.9772   15.8217 C   0  0  0  0  0  0  0  0  0  0  0  0
    9.4833   -6.1352   17.0902 O   0  0  0  0  0  0  0  0  0  0  0  0
   13.4606   -3.2116   13.6865 C   0  0  0  0  0  0  0  0  0  0  0  0
   11.1535   -4.1643   21.1941 C   0  0  0  0  0  0  0  0  0  0  0  0
    7.7476   -7.5227   17.9652 C   0  0  0  0  0  0  0  0  0  0  0  0
   12.2992   -3.0104   14.5944 C   0  0  0  0  0  0  0  0  0  0  0  0
   13.1085   -3.4020   12.4179 N   0  0  0  0  0  0  0  0  0  0  0  0
    0.6241   -7.0007   13.9639 C   0  0  0  0  0  0  0  0  0  0  0  0
  1 19  4  0
  1 22  4  0
  2 29  2  0
  3 15  1  0
  3 22  1  0
  4  6  4  0
  4 14  4  0
  5  7  4  0
  5 11  4  0
  5 25  1  0
  6  9  4  0
  7 24  4  0
  8 26  4  0
  8 28  1  0
  8 31  4  0
  9 30  4  0
 10 14  4  0
 10 30  4  0
 11 17  4  0
 12 19  4  0
 12 20  4  0
 12 30  1  0
 13 33  1  0
 15 32  1  0
 16 18  4  0
 16 31  4  0
 17 34  4  0
 18 23  1  0
 18 27  4  0
 20 21  4  0
 21 22  4  0
 21 28  1  0
 23 25  1  0
 24 34  4  0
 26 27  4  0
 29 32  1  0
 29 33  1  0
M  END
$$$$

 Created by Python create_sdf_string function

 34 51  0  0  0  0  0  0  0  0999 V2000
   11.1945   -2.9559   17.7787 C   0  0  0  0  0  0  0  0  0  0  0  0
   14.5697   -3.0976   14.1624 O   0  0  0  0  0  0  0  0  0  0  0  0
   10.5820   -4.2028   15.6609 O   0  0  0  0  0  0  0  0  0  0  0  0
   11.6876   -4.3234   23.9450 C   0  0  0  0  0  0  0  0  0  0  0  0
    2.3690   -8.1930   15.5758 C   0  0  0  0  0  0  0  0  0  0  0  0
   10.7708   -3.3118   23.4410 N   0  0  0  0  0  0  0  0  0  0  0  0
    2.6891   -6.9871   14.9530 C   0  0  0  0  0  0  0  0  0  0  0  0
    8.1648   -6.7337   17.0603 C   0  0  0  0  0  0  0  0  0  0  0  0
   10.5393   -3.2356   22.0723 C   0  0  0  0  0  0  0  0  0  0  0  0
   12.0111   -5.1584   21.7385 C   0  0  0  0  0  0  0  0  0  0  0  0
    1.2538   -8.6962   15.3946 C   0  0  0  0  0  0  0  0  0  0  0  0
   10.9801   -4.1351   19.6922 C   0  0  0  0  0  0  0  0  0  0  0  0
   12.4020   -2.7366   11.5791 C   0  0  0  0  0  0  0  0  0  0  0  0
   12.3071   -5.2778   23.1085 C   0  0  0  0  0  0  0  0  0  0  0  0
   11.6028   -4.1754   14.9790 C   0  0  0  0  0  0  0  0  0  0  0  0
    6.4978   -8.0654   17.8092 C   0  0  0  0  0  0  0  0  0  0  0  0
    0.2583   -8.1816   14.4764 C   0  0  0  0  0  0  0  0  0  0  0  0
    5.8623   -7.9165   16.8321 C   0  0  0  0  0  0  0  0  0  0  0  0
   11.2428   -3.1263   19.0273 C   0  0  0  0  0  0  0  0  0  0  0  0
   10.2850   -5.1702   19.1178 C   0  0  0  0  0  0  0  0  0  0  0  0
   10.1817   -5.1841   17.8916 C   0  0  0  0  0  0  0  0  0  0  0  0
   10.7113   -4.1459   17.0327 C   0  0  0  0  0  0  0  0  0  0  0  0
    4.5925   -8.4949   16.5989 O   0  0  0  0  0  0  0  0  0  0  0  0
    1.7983   -6.4203   14.2116 C   0  0  0  0  0  0  0  0  0  0  0  0
    3.4288   -8.8084   16.4822 C   0  0  0  0  0  0  0  0  0  0  0  0
    7.3426   -6.4245   15.8699 C   0  0  0  0  0  0  0  0  0  0  0  0
    6.2733   -7.0244   15.7767 C   0  0  0  0  0  0  0  0  0  0  0  0
    9.4705   -6.1369   16.8504 O   0  0  0  0  0  0  0  0  0  0  0  0
   13.4438   -3.3953   13.7610 C   0  0  0  0  0  0  0  0  0  0  0  0
   11.1224   -4.2019   21.2496 C   0  0  0  0  0  0  0  0  0  0  0  0
    7.8151   -7.4903   17.9670 C   0  0  0  0  0  0  0  0  0  0  0  0
   12.2481   -3.0241   14.6589 C   0  0  0  0  0  0  0  0  0  0  0  0
   13.1520   -3.3942   12.4223 N   0  0  0  0  0  0  0  0  0  0  0  0
    0.5894   -7.0500   13.9332 C   0  0  0  0  0  0  0  0  0  0  0  0
  1  6  2  0
  1 19  4  0
  1 22  4  0
  2 18  4  0
  2 29  2  0
  3 15  1  0
  3 22  1  0
  4  6  4  0
  4 14  2  0
  4 32  1  0
  5  6  1  0
  5  7  4  0
  5 11  4  0
  5 25  1  0
  6  9  4  0
  6 32  3  0
  7 24  4  0
  8 26  4  0
  8 28  1  0
  8 31  4  0
  9 30  4  0
 10 14  4  0
 10 30  4  0
 11 17  4  0
 11 28  4  0
 12 19  4  0
 12 20  4  0
 12 30  1  0
 13 20  1  0
 13 26  3  0
 13 33  1  0
 14 31  1  0
 15 21  2  0
 15 32  1  0
 16 18  4  0
 16 31  4  0
 17 34  4  0
 18 23  1  0
 18 27  4  0
 19 24  2  0
 20 21  4  0
 21 22  3  0
 21 25  2  0
 21 28  1  0
 22 31  4  0
 23 25  1  0
 24 34  1  0
 25 30  1  0
 26 27  4  0
 29 32  1  0
 29 33  1  0
M  END
$$$$

 Created by Python create_sdf_string function

 34 37  0  0  0  0  0  0  0  0999 V2000
   11.1946   -3.0415   17.7118 C   0  0  0  0  0  0  0  0  0  0  0  0
   14.5449   -3.1411   14.1266 O   0  0  0  0  0  0  0  0  0  0  0  0
   10.5495   -4.2215   15.6970 O   0  0  0  0  0  0  0  0  0  0  0  0
   11.6424   -4.3064   23.9223 C   0  0  0  0  0  0  0  0  0  0  0  0
    2.3974   -8.1489   15.5587 C   0  0  0  0  0  0  0  0  0  0  0  0
   10.7997   -3.3452   23.4573 N   0  0  0  0  0  0  0  0  0  0  0  0
    2.6876   -6.9685   14.9561 C   0  0  0  0  0  0  0  0  0  0  0  0
    8.2020   -6.6875   16.9613 C   0  0  0  0  0  0  0  0  0  0  0  0
   10.5576   -3.2685   22.0933 C   0  0  0  0  0  0  0  0  0  0  0  0
   11.9814   -5.1751   21.7284 C   0  0  0  0  0  0  0  0  0  0  0  0
    1.1879   -8.7607   15.3611 C   0  0  0  0  0  0  0  0  0  0  0  0
   10.9279   -4.1470   19.8238 C   0  0  0  0  0  0  0  0  0  0  0  0
   12.4185   -2.7518   11.5819 C   0  0  0  0  0  0  0  0  0  0  0  0
   12.2580   -5.2281   23.1017 C   0  0  0  0  0  0  0  0  0  0  0  0
   11.6616   -4.2579   14.9329 C   0  0  0  0  0  0  0  0  0  0  0  0
    6.5700   -8.0931   17.8363 C   0  0  0  0  0  0  0  0  0  0  0  0
    0.2793   -8.1811   14.5170 C   0  0  0  0  0  0  0  0  0  0  0  0
    5.8164   -7.8651   16.7587 C   0  0  0  0  0  0  0  0  0  0  0  0
   11.2662   -3.0434   19.0825 C   0  0  0  0  0  0  0  0  0  0  0  0
   10.3223   -5.1976   19.1158 C   0  0  0  0  0  0  0  0  0  0  0  0
   10.1292   -5.1798   17.7621 C   0  0  0  0  0  0  0  0  0  0  0  0
   10.6723   -4.1259   17.0944 C   0  0  0  0  0  0  0  0  0  0  0  0
    4.6007   -8.5102   16.6626 O   0  0  0  0  0  0  0  0  0  0  0  0
    1.7954   -6.3745   14.1374 C   0  0  0  0  0  0  0  0  0  0  0  0
    3.3807   -8.7888   16.4524 C   0  0  0  0  0  0  0  0  0  0  0  0
    7.4249   -6.4412   15.8789 C   0  0  0  0  0  0  0  0  0  0  0  0
    6.2266   -7.0394   15.7845 C   0  0  0  0  0  0  0  0  0  0  0  0
    9.4820   -6.1415   16.9823 O   0  0  0  0  0  0  0  0  0  0  0  0
   13.4407   -3.2298   13.7058 C   0  0  0  0  0  0  0  0  0  0  0  0
   11.1486   -4.2061   21.1840 C   0  0  0  0  0  0  0  0  0  0  0  0
    7.7692   -7.4977   17.9496 C   0  0  0  0  0  0  0  0  0  0  0  0
   12.2799   -3.0224   14.6008 C   0  0  0  0  0  0  0  0  0  0  0  0
   13.1678   -3.4550   12.4133 N   0  0  0  0  0  0  0  0  0  0  0  0
    0.5794   -6.9952   13.9121 C   0  0  0  0  0  0  0  0  0  0  0  0
  1 19  4  0
  1 22  4  0
  2 29  2  0
  3 15  1  0
  3 22  1  0
  4  6  4  0
  4 14  4  0
  5  7  4  0
  5 11  4  0
  5 25  1  0
  6  9  4  0
  7 24  4  0
  8 26  4  0
  8 28  1  0
  8 31  4  0
  9 30  4  0
 10 14  4  0
 10 30  4  0
 11 17  4  0
 12 19  4  0
 12 20  4  0
 12 30  1  0
 13 33  1  0
 15 32  1  0
 16 18  4  0
 16 31  4  0
 17 34  4  0
 18 23  1  0
 18 27  4  0
 20 21  4  0
 21 22  4  0
 21 28  1  0
 23 25  1  0
 24 34  4  0
 26 27  4  0
 29 32  1  0
 29 33  1  0
M  END
$$$$

 Created by Python create_sdf_string function

 34 41  0  0  0  0  0  0  0  0999 V2000
   11.2285   -3.0463   17.7267 C   0  0  0  0  0  0  0  0  0  0  0  0
   14.4137   -3.1470   14.1833 O   0  0  0  0  0  0  0  0  0  0  0  0
   10.5968   -4.1981   15.7403 O   0  0  0  0  0  0  0  0  0  0  0  0
   11.6868   -4.2529   23.8710 Cl  0  0  0  0  0  0  0  0  0  0  0  0
    2.4204   -8.2039   15.5460 C   0  0  0  0  0  0  0  0  0  0  0  0
   10.8671   -3.3550   23.4191 N   0  0  0  0  0  0  0  0  0  0  0  0
    2.6595   -6.9770   14.8896 C   0  0  0  0  0  0  0  0  0  0  0  0
    8.2261   -6.6445   16.9134 C   0  0  0  0  0  0  0  0  0  0  0  0
   10.5351   -3.3109   22.0567 C   0  0  0  0  0  0  0  0  0  0  0  0
   11.9516   -5.1773   21.7637 F   0  0  0  0  0  0  0  0  0  0  0  0
    1.1688   -8.7341   15.2736 C   0  0  0  0  0  0  0  0  0  0  0  0
   10.9803   -4.0906   19.8446 C   0  0  0  0  0  0  0  0  0  0  0  0
   12.4034   -2.7463   11.5565 C   0  0  0  0  0  0  0  0  0  0  0  0
   12.2431   -5.2969   23.0386 C   0  0  0  0  0  0  0  0  0  0  0  0
   11.6723   -4.1998   15.0236 C   0  0  0  0  0  0  0  0  0  0  0  0
    6.5633   -8.1658   17.8532 C   0  0  0  0  0  0  0  0  0  0  0  0
    0.3052   -8.2147   14.4673 C   0  0  0  0  0  0  0  0  0  0  0  0
    5.7990   -7.8823   16.7823 C   0  0  0  0  0  0  0  0  0  0  0  0
   11.3080   -3.0176   18.9839 C   0  0  0  0  0  0  0  0  0  0  0  0
   10.3151   -5.2932   19.1471 C   0  0  0  0  0  0  0  0  0  0  0  0
   10.1115   -5.1499   17.7828 C   0  0  0  0  0  0  0  0  0  0  0  0
   10.5879   -4.1126   17.0369 C   0  0  0  0  0  0  0  0  0  0  0  0
    4.6704   -8.5938   16.7008 O   0  0  0  0  0  0  0  0  0  0  0  0
    1.8738   -6.3805   14.0253 C   0  0  0  0  0  0  0  0  0  0  0  0
    3.3486   -8.8298   16.4060 C   0  0  0  0  0  0  0  0  0  0  0  0
    7.3816   -6.4469   15.8599 C   0  0  0  0  0  0  0  0  0  0  0  0
    6.2533   -7.0968   15.7183 C   0  0  0  0  0  0  0  0  0  0  0  0
    9.5020   -6.1724   16.9373 O   0  0  0  0  0  0  0  0  0  0  0  0
   13.4394   -3.1747   13.7275 C   0  0  0  0  0  0  0  0  0  0  0  0
    7.7537   -7.4959   17.9427 C   0  0  0  0  0  0  0  0  0  0  0  0
   12.2269   -3.0574   14.6507 C   0  0  0  0  0  0  0  0  0  0  0  0
   13.1578   -3.4961   12.4223 N   0  0  0  0  0  0  0  0  0  0  0  0
    0.6017   -6.9927   13.9533 C   0  0  0  0  0  0  0  0  0  0  0  0
   11.1320   -4.1523   21.2165 He  0  0  0  0  0  0  0  0  0  0  0  0
  1 22  4  0
  2 29  2  0
  3 15  1  0
  3 22  1  0
  4  6  4  0
  4 14  4  0
  5  7  4  0
  5 11  4  0
  5 25  1  0
  6  9  4  0
  6 17  1  0
  7 24  4  0
  8 26  4  0
  8 28  1  0
  8 30  4  0
  9 11  3  0
  9 33  4  0
 10 14  4  0
 11 17  4  0
 12 19  4  0
 12 20  4  0
 13 17  4  0
 13 19  2  0
 13 32  1  0
 15 31  1  0
 16 17  1  0
 16 18  4  0
 16 20  3  0
 16 30  4  0
 17 33  4  0
 18 23  1  0
 18 27  4  0
 20 21  4  0
 21 22  4  0
 21 28  1  0
 21 33  3  0
 23 25  1  0
 24 33  4  0
 26 27  4  0
 29 31  1  0
 29 32  1  0
M  END
$$$$

 Created by Python create_sdf_string function

 34 37  0  0  0  0  0  0  0  0999 V2000
   11.1937   -3.0522   17.6968 C   0  0  0  0  0  0  0  0  0  0  0  0
   14.4778   -3.1326   14.1587 O   0  0  0  0  0  0  0  0  0  0  0  0
   10.5399   -4.2157   15.7135 O   0  0  0  0  0  0  0  0  0  0  0  0
   11.6812   -4.3099   23.8817 C   0  0  0  0  0  0  0  0  0  0  0  0
    2.4086   -8.1558   15.5033 C   0  0  0  0  0  0  0  0  0  0  0  0
   10.8498   -3.3604   23.4139 N   0  0  0  0  0  0  0  0  0  0  0  0
    2.7283   -6.9890   14.8997 C   0  0  0  0  0  0  0  0  0  0  0  0
    8.1985   -6.6964   16.9425 C   0  0  0  0  0  0  0  0  0  0  0  0
   10.5805   -3.2976   22.0731 C   0  0  0  0  0  0  0  0  0  0  0  0
   11.9387   -5.1955   21.7261 C   0  0  0  0  0  0  0  0  0  0  0  0
    1.2101   -8.7589   15.3038 C   0  0  0  0  0  0  0  0  0  0  0  0
   10.9360   -4.1464   19.8121 C   0  0  0  0  0  0  0  0  0  0  0  0
   12.4138   -2.7462   11.5579 C   0  0  0  0  0  0  0  0  0  0  0  0
   12.2263   -5.2496   23.0547 C   0  0  0  0  0  0  0  0  0  0  0  0
   11.7042   -4.2683   14.9898 C   0  0  0  0  0  0  0  0  0  0  0  0
    6.5796   -8.1210   17.8194 C   0  0  0  0  0  0  0  0  0  0  0  0
    0.3065   -8.1603   14.4748 C   0  0  0  0  0  0  0  0  0  0  0  0
    5.8186   -7.9054   16.7510 C   0  0  0  0  0  0  0  0  0  0  0  0
   11.2961   -3.0445   19.0585 C   0  0  0  0  0  0  0  0  0  0  0  0
   10.3183   -5.2050   19.1151 C   0  0  0  0  0  0  0  0  0  0  0  0
   10.1018   -5.1870   17.7657 C   0  0  0  0  0  0  0  0  0  0  0  0
   10.6375   -4.1375   17.0860 C   0  0  0  0  0  0  0  0  0  0  0  0
    4.6128   -8.5728   16.6972 O   0  0  0  0  0  0  0  0  0  0  0  0
    1.8351   -6.3857   14.0688 C   0  0  0  0  0  0  0  0  0  0  0  0
    3.3928   -8.7982   16.4000 C   0  0  0  0  0  0  0  0  0  0  0  0
    7.4140   -6.4798   15.8493 C   0  0  0  0  0  0  0  0  0  0  0  0
    6.2301   -7.0843   15.7530 C   0  0  0  0  0  0  0  0  0  0  0  0
    9.4649   -6.1603   17.0083 O   0  0  0  0  0  0  0  0  0  0  0  0
   13.4140   -3.2025   13.6944 C   0  0  0  0  0  0  0  0  0  0  0  0
   11.1477   -4.2213   21.1802 C   0  0  0  0  0  0  0  0  0  0  0  0
    7.7608   -7.5081   17.9269 C   0  0  0  0  0  0  0  0  0  0  0  0
   12.2328   -3.0110   14.5734 C   0  0  0  0  0  0  0  0  0  0  0  0
   13.1479   -3.4856   12.4056 N   0  0  0  0  0  0  0  0  0  0  0  0
    0.6111   -6.9810   13.8846 C   0  0  0  0  0  0  0  0  0  0  0  0
  1 19  4  0
  1 22  4  0
  2 29  2  0
  3 15  1  0
  3 22  1  0
  4  6  4  0
  4 14  4  0
  5  7  4  0
  5 11  4  0
  5 25  1  0
  6  9  4  0
  7 24  4  0
  8 26  4  0
  8 28  1  0
  8 31  4  0
  9 30  4  0
 10 14  4  0
 10 30  4  0
 11 17  4  0
 12 19  4  0
 12 20  4  0
 12 30  1  0
 13 33  1  0
 15 32  1  0
 16 18  4  0
 16 31  4  0
 17 34  4  0
 18 23  1  0
 18 27  4  0
 20 21  4  0
 21 22  4  0
 21 28  1  0
 23 25  1  0
 24 34  4  0
 26 27  4  0
 29 32  1  0
 29 33  1  0
M  END
$$$$

 Created by Python create_sdf_string function

 34 38  0  0  0  0  0  0  0  0999 V2000
   11.1714   -3.1851   17.7157 C   0  0  0  0  0  0  0  0  0  0  0  0
   14.5203   -3.1825   14.1649 O   0  0  0  0  0  0  0  0  0  0  0  0
   10.5398   -4.1663   15.6732 O   0  0  0  0  0  0  0  0  0  0  0  0
   11.6553   -4.2597   23.9226 C   0  0  0  0  0  0  0  0  0  0  0  0
   10.8809   -3.3593   23.4447 N   0  0  0  0  0  0  0  0  0  0  0  0
    2.7041   -6.9801   14.8701 C   0  0  0  0  0  0  0  0  0  0  0  0
    8.1813   -6.6851   16.9321 C   0  0  0  0  0  0  0  0  0  0  0  0
   10.5672   -3.3200   22.0686 C   0  0  0  0  0  0  0  0  0  0  0  0
   11.9029   -5.2044   21.8202 C   0  0  0  0  0  0  0  0  0  0  0  0
    1.2422   -8.7655   15.3577 C   0  0  0  0  0  0  0  0  0  0  0  0
   10.9555   -4.2274   19.8069 C   0  0  0  0  0  0  0  0  0  0  0  0
   12.3623   -2.7436   11.5063 C   0  0  0  0  0  0  0  0  0  0  0  0
   12.2162   -5.2098   23.0002 C   0  0  0  0  0  0  0  0  0  0  0  0
   11.7051   -4.2775   15.0144 C   0  0  0  0  0  0  0  0  0  0  0  0
    6.5801   -8.1184   17.8097 C   0  0  0  0  0  0  0  0  0  0  0  0
    0.3128   -8.1790   14.4414 C   0  0  0  0  0  0  0  0  0  0  0  0
    5.7724   -7.9846   16.7154 C   0  0  0  0  0  0  0  0  0  0  0  0
   11.3173   -3.0414   19.1366 C   0  0  0  0  0  0  0  0  0  0  0  0
   10.2660   -5.2581   19.0959 C   0  0  0  0  0  0  0  0  0  0  0  0
   10.0618   -5.0965   17.7387 C   0  0  0  0  0  0  0  0  0  0  0  0
   10.7084   -4.1149   17.1292 C   0  0  0  0  0  0  0  0  0  0  0  0
    4.6494   -8.6996   16.6162 O   0  0  0  0  0  0  0  0  0  0  0  0
    1.7827   -6.3587   14.0772 C   0  0  0  0  0  0  0  0  0  0  0  0
    3.4599   -8.8770   16.3625 C   0  0  0  0  0  0  0  0  0  0  0  0
    7.3600   -6.5468   15.8403 C   0  0  0  0  0  0  0  0  0  0  0  0
    6.2265   -7.0765   15.7079 C   0  0  0  0  0  0  0  0  0  0  0  0
    9.5304   -6.1322   17.0281 O   0  0  0  0  0  0  0  0  0  0  0  0
   13.3785   -3.2094   13.6893 C   0  0  0  0  0  0  0  0  0  0  0  0
   11.1288   -4.2638   21.1914 C   0  0  0  0  0  0  0  0  0  0  0  0
    7.7077   -7.4658   17.9329 C   0  0  0  0  0  0  0  0  0  0  0  0
   12.1711   -3.0312   14.6240 C   0  0  0  0  0  0  0  0  0  0  0  0
   13.1407   -3.4962   12.4230 N   0  0  0  0  0  0  0  0  0  0  0  0
    0.5517   -7.0270   13.8457 C   0  0  0  0  0  0  0  0  0  0  0  0
    2.3888   -8.1839   15.5197 He  0  0  0  0  0  0  0  0  0  0  0  0
  1 18  4  0
  1 21  4  0
  2 28  2  0
  3 14  1  0
  3 21  1  0
  4  5  4  0
  4 13  4  0
  6 23  4  0
  7 12  2  0
  7 25  4  0
  7 27  1  0
  7 30  4  0
  8 29  4  0
  9 13  4  0
  9 29  4  0
 10 16  4  0
 10 20  1  0
 11 18  4  0
 11 19  4  0
 11 24  1  0
 11 29  1  0
 12 32  1  0
 14 31  1  0
 15 17  4  0
 15 30  4  0
 16 27  2  0
 16 33  4  0
 17 22  1  0
 17 26  4  0
 19 20  4  0
 20 21  4  0
 20 27  1  0
 22 24  1  0
 23 33  4  0
 25 26  4  0
 25 29  4  0
 28 31  1  0
 28 32  1  0
M  END
$$$$

 Created by Python create_sdf_string function

 34 37  0  0  0  0  0  0  0  0999 V2000
   11.2226   -3.0914   17.7495 C   0  0  0  0  0  0  0  0  0  0  0  0
   14.4722   -3.1749   14.1316 O   0  0  0  0  0  0  0  0  0  0  0  0
   10.5309   -4.1819   15.7028 O   0  0  0  0  0  0  0  0  0  0  0  0
   11.6763   -4.3026   23.9201 C   0  0  0  0  0  0  0  0  0  0  0  0
    2.4209   -8.1624   15.4821 C   0  0  0  0  0  0  0  0  0  0  0  0
   10.8520   -3.3580   23.4150 N   0  0  0  0  0  0  0  0  0  0  0  0
    2.6968   -6.9847   14.8845 C   0  0  0  0  0  0  0  0  0  0  0  0
    8.1697   -6.7059   16.9348 C   0  0  0  0  0  0  0  0  0  0  0  0
   10.5841   -3.3112   22.0829 C   0  0  0  0  0  0  0  0  0  0  0  0
   11.9210   -5.2450   21.7533 C   0  0  0  0  0  0  0  0  0  0  0  0
    1.2104   -8.7554   15.3097 C   0  0  0  0  0  0  0  0  0  0  0  0
   10.9126   -4.2062   19.8108 C   0  0  0  0  0  0  0  0  0  0  0  0
   12.3848   -2.7630   11.5182 C   0  0  0  0  0  0  0  0  0  0  0  0
   12.2173   -5.2361   23.0916 C   0  0  0  0  0  0  0  0  0  0  0  0
   11.7294   -4.2770   15.0089 C   0  0  0  0  0  0  0  0  0  0  0  0
    6.5644   -8.1240   17.7930 C   0  0  0  0  0  0  0  0  0  0  0  0
    0.3054   -8.1909   14.4739 C   0  0  0  0  0  0  0  0  0  0  0  0
    5.8145   -7.9521   16.7112 C   0  0  0  0  0  0  0  0  0  0  0  0
   11.3028   -3.0916   19.1097 C   0  0  0  0  0  0  0  0  0  0  0  0
   10.2731   -5.2228   19.0978 C   0  0  0  0  0  0  0  0  0  0  0  0
   10.0882   -5.1768   17.7605 C   0  0  0  0  0  0  0  0  0  0  0  0
   10.6639   -4.1375   17.0988 C   0  0  0  0  0  0  0  0  0  0  0  0
    4.6223   -8.6484   16.6173 O   0  0  0  0  0  0  0  0  0  0  0  0
    1.7952   -6.3699   14.0740 C   0  0  0  0  0  0  0  0  0  0  0  0
    3.4168   -8.8416   16.3385 C   0  0  0  0  0  0  0  0  0  0  0  0
    7.3981   -6.5227   15.8233 C   0  0  0  0  0  0  0  0  0  0  0  0
    6.2151   -7.1194   15.7220 C   0  0  0  0  0  0  0  0  0  0  0  0
    9.4416   -6.1378   17.0288 O   0  0  0  0  0  0  0  0  0  0  0  0
   13.3675   -3.2163   13.6665 C   0  0  0  0  0  0  0  0  0  0  0  0
   11.1327   -4.2617   21.1863 C   0  0  0  0  0  0  0  0  0  0  0  0
    7.7308   -7.4837   17.9280 C   0  0  0  0  0  0  0  0  0  0  0  0
   12.2098   -3.0016   14.5613 C   0  0  0  0  0  0  0  0  0  0  0  0
   13.1207   -3.4630   12.3889 N   0  0  0  0  0  0  0  0  0  0  0  0
    0.5652   -7.0018   13.8469 C   0  0  0  0  0  0  0  0  0  0  0  0
  1 19  4  0
  1 22  4  0
  2 29  2  0
  3 15  1  0
  3 22  1  0
  4  6  4  0
  4 14  4  0
  5  7  4  0
  5 11  4  0
  5 25  1  0
  6  9  4  0
  7 24  4  0
  8 26  4  0
  8 28  1  0
  8 31  4  0
  9 30  4  0
 10 14  4  0
 10 30  4  0
 11 17  4  0
 12 19  4  0
 12 20  4  0
 12 30  1  0
 13 33  1  0
 15 32  1  0
 16 18  4  0
 16 31  4  0
 17 34  4  0
 18 23  1  0
 18 27  4  0
 20 21  4  0
 21 22  4  0
 21 28  1  0
 23 25  1  0
 24 34  4  0
 26 27  4  0
 29 32  1  0
 29 33  1  0
M  END
$$$$

 Created by Python create_sdf_string function

 34 40  0  0  0  0  0  0  0  0999 V2000
   11.1813   -3.1146   17.7340 C   0  0  0  0  0  0  0  0  0  0  0  0
   14.3698   -3.0580   14.1667 O   0  0  0  0  0  0  0  0  0  0  0  0
   10.5219   -4.1782   15.6968 O   0  0  0  0  0  0  0  0  0  0  0  0
   11.6872   -4.3419   23.9003 C   0  0  0  0  0  0  0  0  0  0  0  0
    2.4871   -8.1199   15.5225 C   0  0  0  0  0  0  0  0  0  0  0  0
   10.8617   -3.3412   23.3987 N   0  0  0  0  0  0  0  0  0  0  0  0
    2.6474   -6.9778   14.8394 C   0  0  0  0  0  0  0  0  0  0  0  0
    8.1824   -6.7783   16.9524 C   0  0  0  0  0  0  0  0  0  0  0  0
   10.5937   -3.3330   22.0345 C   0  0  0  0  0  0  0  0  0  0  0  0
   11.9273   -5.2946   21.7806 C   0  0  0  0  0  0  0  0  0  0  0  0
    1.2157   -8.7844   15.3517 C   0  0  0  0  0  0  0  0  0  0  0  0
   10.8963   -4.1429   19.8206 C   0  0  0  0  0  0  0  0  0  0  0  0
   12.3832   -2.7661   11.5306 C   0  0  0  0  0  0  0  0  0  0  0  0
   12.2518   -5.2461   23.1085 C   0  0  0  0  0  0  0  0  0  0  0  0
   11.7279   -4.2424   15.0443 C   0  0  0  0  0  0  0  0  0  0  0  0
    6.5412   -8.1921   17.8753 C   0  0  0  0  0  0  0  0  0  0  0  0
    0.3451   -8.1158   14.4912 C   0  0  0  0  0  0  0  0  0  0  0  0
    5.7449   -7.9784   16.6889 C   0  0  0  0  0  0  0  0  0  0  0  0
   11.2943   -3.1835   19.1241 C   0  0  0  0  0  0  0  0  0  0  0  0
   10.3080   -5.2548   19.1383 C   0  0  0  0  0  0  0  0  0  0  0  0
   10.1152   -5.2254   17.6564 C   0  0  0  0  0  0  0  0  0  0  0  0
   10.6803   -4.1527   17.0293 C   0  0  0  0  0  0  0  0  0  0  0  0
    4.6256   -8.6669   16.6108 O   0  0  0  0  0  0  0  0  0  0  0  0
    1.7870   -6.3082   14.0671 C   0  0  0  0  0  0  0  0  0  0  0  0
    3.3848   -8.8275   16.3739 C   0  0  0  0  0  0  0  0  0  0  0  0
    7.4389   -6.5384   15.7978 C   0  0  0  0  0  0  0  0  0  0  0  0
    6.2362   -7.1134   15.6590 C   0  0  0  0  0  0  0  0  0  0  0  0
    9.4606   -6.1046   17.0062 O   0  0  0  0  0  0  0  0  0  0  0  0
   13.4300   -3.2984   13.6875 C   0  0  0  0  0  0  0  0  0  0  0  0
   11.1380   -4.3479   21.1593 C   0  0  0  0  0  0  0  0  0  0  0  0
    7.7036   -7.4547   17.9708 C   0  0  0  0  0  0  0  0  0  0  0  0
   12.1744   -3.0204   14.5192 C   0  0  0  0  0  0  0  0  0  0  0  0
   13.0242   -3.4904   12.3311 N   0  0  0  0  0  0  0  0  0  0  0  0
    0.5359   -7.0376   13.8486 C   0  0  0  0  0  0  0  0  0  0  0  0
  1 19  4  0
  1 22  4  0
  2 29  2  0
  3 15  1  0
  3 22  1  0
  4  6  4  0
  4 14  4  0
  5  7  4  0
  5 11  4  0
  5 25  1  0
  6  9  4  0
  6 13  4  0
  7 24  4  0
  8 26  4  0
  8 28  1  0
  8 31  4  0
  9 30  4  0
 10 14  4  0
 10 34  1  0
 11 17  4  0
 12 20  4  0
 12 30  1  0
 13 33  1  0
 15 32  1  0
 16 18  4  0
 16 31  4  0
 17 34  4  0
 18 23  1  0
 18 27  4  0
 19 33  1  0
 20 21  4  0
 21 22  4  0
 21 28  1  0
 23 25  1  0
 24 30  2  0
 24 34  4  0
 26 27  4  0
 28 33  1  0
 29 32  1  0
 29 33  1  0
M  END
$$$$

 Created by Python create_sdf_string function

 34 37  0  0  0  0  0  0  0  0999 V2000
   11.2033   -3.1048   17.7219 C   0  0  0  0  0  0  0  0  0  0  0  0
   14.4201   -3.0810   14.1029 O   0  0  0  0  0  0  0  0  0  0  0  0
   10.5316   -4.1939   15.6971 O   0  0  0  0  0  0  0  0  0  0  0  0
   11.6802   -4.3344   23.9097 C   0  0  0  0  0  0  0  0  0  0  0  0
    2.4327   -8.1300   15.4832 C   0  0  0  0  0  0  0  0  0  0  0  0
   10.8681   -3.3754   23.3988 N   0  0  0  0  0  0  0  0  0  0  0  0
    2.7011   -6.9571   14.8601 C   0  0  0  0  0  0  0  0  0  0  0  0
    8.1665   -6.7419   16.9379 C   0  0  0  0  0  0  0  0  0  0  0  0
   10.6012   -3.3242   22.0632 C   0  0  0  0  0  0  0  0  0  0  0  0
   11.9187   -5.2948   21.7518 C   0  0  0  0  0  0  0  0  0  0  0  0
    1.2218   -8.7518   15.3302 C   0  0  0  0  0  0  0  0  0  0  0  0
   10.9150   -4.2278   19.8074 C   0  0  0  0  0  0  0  0  0  0  0  0
   12.3896   -2.7695   11.5129 C   0  0  0  0  0  0  0  0  0  0  0  0
   12.2342   -5.2859   23.1095 C   0  0  0  0  0  0  0  0  0  0  0  0
   11.7367   -4.2593   15.0299 C   0  0  0  0  0  0  0  0  0  0  0  0
    6.5323   -8.1474   17.8178 C   0  0  0  0  0  0  0  0  0  0  0  0
    0.3246   -8.1578   14.5071 C   0  0  0  0  0  0  0  0  0  0  0  0
    5.8002   -7.9585   16.7036 C   0  0  0  0  0  0  0  0  0  0  0  0
   11.2727   -3.1083   19.0687 C   0  0  0  0  0  0  0  0  0  0  0  0
   10.2951   -5.2523   19.1105 C   0  0  0  0  0  0  0  0  0  0  0  0
   10.1009   -5.2125   17.7482 C   0  0  0  0  0  0  0  0  0  0  0  0
   10.6661   -4.1638   17.0903 C   0  0  0  0  0  0  0  0  0  0  0  0
    4.5877   -8.6202   16.6083 O   0  0  0  0  0  0  0  0  0  0  0  0
    1.7957   -6.3404   14.0615 C   0  0  0  0  0  0  0  0  0  0  0  0
    3.4090   -8.7905   16.3634 C   0  0  0  0  0  0  0  0  0  0  0  0
    7.4387   -6.5656   15.8082 C   0  0  0  0  0  0  0  0  0  0  0  0
    6.2354   -7.1492   15.6963 C   0  0  0  0  0  0  0  0  0  0  0  0
    9.4176   -6.1438   17.0336 O   0  0  0  0  0  0  0  0  0  0  0  0
   13.3543   -3.2305   13.6312 C   0  0  0  0  0  0  0  0  0  0  0  0
   11.1424   -4.2933   21.1983 C   0  0  0  0  0  0  0  0  0  0  0  0
    7.6999   -7.5103   17.9496 C   0  0  0  0  0  0  0  0  0  0  0  0
   12.1505   -3.0296   14.4851 C   0  0  0  0  0  0  0  0  0  0  0  0
   13.0674   -3.4930   12.3497 N   0  0  0  0  0  0  0  0  0  0  0  0
    0.5675   -6.9848   13.8590 C   0  0  0  0  0  0  0  0  0  0  0  0
  1 19  4  0
  1 22  4  0
  2 29  2  0
  3 15  1  0
  3 22  1  0
  4  6  4  0
  4 14  4  0
  5  7  4  0
  5 11  4  0
  5 25  1  0
  6  9  4  0
  7 24  4  0
  8 26  4  0
  8 28  1  0
  8 31  4  0
  9 30  4  0
 10 14  4  0
 10 30  4  0
 11 17  4  0
 12 19  4  0
 12 20  4  0
 12 30  1  0
 13 33  1  0
 15 32  1  0
 16 18  4  0
 16 31  4  0
 17 34  4  0
 18 23  1  0
 18 27  4  0
 20 21  4  0
 21 22  4  0
 21 28  1  0
 23 25  1  0
 24 34  4  0
 26 27  4  0
 29 32  1  0
 29 33  1  0
M  END
$$$$

 Created by Python create_sdf_string function

 34 40  0  0  0  0  0  0  0  0999 V2000
   14.3711   -3.0438   14.1819 O   0  0  0  0  0  0  0  0  0  0  0  0
   10.4947   -4.1681   15.7355 O   0  0  0  0  0  0  0  0  0  0  0  0
   11.7627   -4.3201   23.8837 C   0  0  0  0  0  0  0  0  0  0  0  0
    2.3718   -8.1036   15.4734 C   0  0  0  0  0  0  0  0  0  0  0  0
   10.8563   -3.3647   23.3785 N   0  0  0  0  0  0  0  0  0  0  0  0
    2.7238   -7.0022   14.8954 C   0  0  0  0  0  0  0  0  0  0  0  0
    8.1825   -6.7391   16.9725 C   0  0  0  0  0  0  0  0  0  0  0  0
   10.5275   -3.3260   21.9948 C   0  0  0  0  0  0  0  0  0  0  0  0
   11.9299   -5.2665   21.7458 C   0  0  0  0  0  0  0  0  0  0  0  0
    1.2828   -8.8039   15.3082 C   0  0  0  0  0  0  0  0  0  0  0  0
   10.9323   -4.2861   19.8138 C   0  0  0  0  0  0  0  0  0  0  0  0
   12.4274   -2.7939   11.5748 C   0  0  0  0  0  0  0  0  0  0  0  0
   12.2771   -5.2454   23.1014 C   0  0  0  0  0  0  0  0  0  0  0  0
   11.7156   -4.2082   15.0355 C   0  0  0  0  0  0  0  0  0  0  0  0
    6.5130   -8.1492   17.7989 C   0  0  0  0  0  0  0  0  0  0  0  0
    0.3199   -8.1842   14.5106 C   0  0  0  0  0  0  0  0  0  0  0  0
    5.8420   -8.0768   16.7548 C   0  0  0  0  0  0  0  0  0  0  0  0
   11.2363   -3.1266   19.1178 C   0  0  0  0  0  0  0  0  0  0  0  0
   10.1270   -5.1821   17.7945 C   0  0  0  0  0  0  0  0  0  0  0  0
   10.6772   -4.1383   17.0910 C   0  0  0  0  0  0  0  0  0  0  0  0
    4.6008   -8.6347   16.6230 O   0  0  0  0  0  0  0  0  0  0  0  0
    1.7157   -6.3772   14.0124 C   0  0  0  0  0  0  0  0  0  0  0  0
    3.4141   -8.8330   16.3527 C   0  0  0  0  0  0  0  0  0  0  0  0
    7.4578   -6.5741   15.7590 C   0  0  0  0  0  0  0  0  0  0  0  0
    6.2848   -7.1441   15.7192 C   0  0  0  0  0  0  0  0  0  0  0  0
    9.4057   -6.1686   17.0584 O   0  0  0  0  0  0  0  0  0  0  0  0
   13.3510   -3.1935   13.6386 C   0  0  0  0  0  0  0  0  0  0  0  0
   11.1283   -4.2751   21.2139 C   0  0  0  0  0  0  0  0  0  0  0  0
    7.6763   -7.4976   17.8972 C   0  0  0  0  0  0  0  0  0  0  0  0
   12.2170   -3.0344   14.5150 C   0  0  0  0  0  0  0  0  0  0  0  0
   13.0773   -3.4453   12.3299 N   0  0  0  0  0  0  0  0  0  0  0  0
    0.5936   -7.0096   13.8944 C   0  0  0  0  0  0  0  0  0  0  0  0
   11.2397   -3.0815   17.7667 He  0  0  0  0  0  0  0  0  0  0  0  0
   10.2995   -5.3196   19.0996 He  0  0  0  0  0  0  0  0  0  0  0  0
  1 27  2  0
  2 14  1  0
  2 20  1  0
  2 28  1  0
  3  5  4  0
  3 12  4  0
  3 13  4  0
  4  6  4  0
  4 10  4  0
  4 23  1  0
  5  8  4  0
  5 17  4  0
  6 22  4  0
  7 24  4  0
  7 26  1  0
  7 29  4  0
  8 28  4  0
  9 13  4  0
  9 28  2  0
 10 16  4  0
 11 18  4  0
 11 27  4  0
 11 28  1  0
 12 13  4  0
 12 31  1  0
 14 30  1  0
 15 17  4  0
 15 29  4  0
 16 32  4  0
 17 21  1  0
 17 25  4  0
 19 20  4  0
 19 26  1  0
 19 30  4  0
 21 22  1  0
 21 23  1  0
 22 32  4  0
 24 25  4  0
 27 30  1  0
 27 31  1  0
M  END
$$$$

 Created by Python create_sdf_string function

 34 37  0  0  0  0  0  0  0  0999 V2000
   11.2119   -3.1022   17.7398 C   0  0  0  0  0  0  0  0  0  0  0  0
   14.3993   -3.0555   14.1186 O   0  0  0  0  0  0  0  0  0  0  0  0
   10.5284   -4.1770   15.7322 O   0  0  0  0  0  0  0  0  0  0  0  0
   11.7157   -4.2985   23.8907 C   0  0  0  0  0  0  0  0  0  0  0  0
    2.4101   -8.1514   15.4661 C   0  0  0  0  0  0  0  0  0  0  0  0
   10.8575   -3.3688   23.3891 N   0  0  0  0  0  0  0  0  0  0  0  0
    2.7088   -6.9722   14.8737 C   0  0  0  0  0  0  0  0  0  0  0  0
    8.1665   -6.7545   16.9491 C   0  0  0  0  0  0  0  0  0  0  0  0
   10.5656   -3.3274   22.0476 C   0  0  0  0  0  0  0  0  0  0  0  0
   11.9355   -5.2736   21.7475 C   0  0  0  0  0  0  0  0  0  0  0  0
    1.2172   -8.7854   15.2990 C   0  0  0  0  0  0  0  0  0  0  0  0
   10.9137   -4.2414   19.8018 C   0  0  0  0  0  0  0  0  0  0  0  0
   12.4140   -2.7743   11.5194 C   0  0  0  0  0  0  0  0  0  0  0  0
   12.2691   -5.2685   23.0964 C   0  0  0  0  0  0  0  0  0  0  0  0
   11.7284   -4.2325   15.0332 C   0  0  0  0  0  0  0  0  0  0  0  0
    6.5404   -8.1489   17.7949 C   0  0  0  0  0  0  0  0  0  0  0  0
    0.2969   -8.1936   14.4966 C   0  0  0  0  0  0  0  0  0  0  0  0
    5.8331   -7.9741   16.6985 C   0  0  0  0  0  0  0  0  0  0  0  0
   11.2672   -3.1281   19.1013 C   0  0  0  0  0  0  0  0  0  0  0  0
   10.3022   -5.2817   19.0974 C   0  0  0  0  0  0  0  0  0  0  0  0
   10.1034   -5.2179   17.7704 C   0  0  0  0  0  0  0  0  0  0  0  0
   10.6660   -4.1527   17.1145 C   0  0  0  0  0  0  0  0  0  0  0  0
    4.5990   -8.6196   16.6161 O   0  0  0  0  0  0  0  0  0  0  0  0
    1.7829   -6.3739   14.0521 C   0  0  0  0  0  0  0  0  0  0  0  0
    3.3939   -8.8169   16.3454 C   0  0  0  0  0  0  0  0  0  0  0  0
    7.4681   -6.5804   15.7970 C   0  0  0  0  0  0  0  0  0  0  0  0
    6.2747   -7.1911   15.6906 C   0  0  0  0  0  0  0  0  0  0  0  0
    9.4021   -6.1546   17.0728 O   0  0  0  0  0  0  0  0  0  0  0  0
   13.3364   -3.1844   13.6332 C   0  0  0  0  0  0  0  0  0  0  0  0
   11.1321   -4.3020   21.1779 C   0  0  0  0  0  0  0  0  0  0  0  0
    7.7097   -7.5221   17.9361 C   0  0  0  0  0  0  0  0  0  0  0  0
   12.1505   -3.0217   14.4853 C   0  0  0  0  0  0  0  0  0  0  0  0
   13.1004   -3.4557   12.3528 N   0  0  0  0  0  0  0  0  0  0  0  0
    0.5543   -7.0134   13.8786 C   0  0  0  0  0  0  0  0  0  0  0  0
  1 19  4  0
  1 22  4  0
  2 29  2  0
  3 15  1  0
  3 22  1  0
  4  6  4  0
  4 14  4  0
  5  7  4  0
  5 11  4  0
  5 25  1  0
  6  9  4  0
  7 24  4  0
  8 26  4  0
  8 28  1  0
  8 31  4  0
  9 30  4  0
 10 14  4  0
 10 30  4  0
 11 17  4  0
 12 19  4  0
 12 20  4  0
 12 30  1  0
 13 33  1  0
 15 32  1  0
 16 18  4  0
 16 31  4  0
 17 34  4  0
 18 23  1  0
 18 27  4  0
 20 21  4  0
 21 22  4  0
 21 28  1  0
 23 25  1  0
 24 34  4  0
 26 27  4  0
 29 32  1  0
 29 33  1  0
M  END
$$$$

 Created by Python create_sdf_string function

 34 43  0  0  0  0  0  0  0  0999 V2000
   11.2396   -3.1050   17.7237 C   0  0  0  0  0  0  0  0  0  0  0  0
   14.3960   -3.0500   14.0708 O   0  0  0  0  0  0  0  0  0  0  0  0
   10.5750   -4.1952   15.7440 O   0  0  0  0  0  0  0  0  0  0  0  0
   11.7584   -4.2663   23.8588 C   0  0  0  0  0  0  0  0  0  0  0  0
    2.4436   -8.1456   15.4527 C   0  0  0  0  0  0  0  0  0  0  0  0
   10.8489   -3.4052   23.3760 N   0  0  0  0  0  0  0  0  0  0  0  0
    2.7785   -6.9770   14.9015 C   0  0  0  0  0  0  0  0  0  0  0  0
    8.1538   -6.7799   16.8852 C   0  0  0  0  0  0  0  0  0  0  0  0
   10.5724   -3.3436   22.0435 C   0  0  0  0  0  0  0  0  0  0  0  0
    1.1945   -8.7879   15.3172 C   0  0  0  0  0  0  0  0  0  0  0  0
   10.9701   -4.2252   19.7385 C   0  0  0  0  0  0  0  0  0  0  0  0
   12.4245   -2.7429   11.4917 C   0  0  0  0  0  0  0  0  0  0  0  0
   12.2737   -5.2566   23.1425 C   0  0  0  0  0  0  0  0  0  0  0  0
   11.7175   -4.2016   15.0797 C   0  0  0  0  0  0  0  0  0  0  0  0
    6.5455   -8.1358   17.8166 C   0  0  0  0  0  0  0  0  0  0  0  0
    0.3054   -8.2317   14.4942 C   0  0  0  0  0  0  0  0  0  0  0  0
    5.8411   -7.9843   16.6704 C   0  0  0  0  0  0  0  0  0  0  0  0
   11.2607   -3.1398   19.0601 C   0  0  0  0  0  0  0  0  0  0  0  0
   10.3684   -5.2458   19.1004 C   0  0  0  0  0  0  0  0  0  0  0  0
   10.1262   -5.2427   17.8180 C   0  0  0  0  0  0  0  0  0  0  0  0
   10.6322   -4.1418   17.1284 C   0  0  0  0  0  0  0  0  0  0  0  0
    4.5960   -8.5914   16.5885 O   0  0  0  0  0  0  0  0  0  0  0  0
    1.7754   -6.4120   14.0144 C   0  0  0  0  0  0  0  0  0  0  0  0
    3.4075   -8.8121   16.3365 C   0  0  0  0  0  0  0  0  0  0  0  0
    7.5999   -6.5565   15.8279 C   0  0  0  0  0  0  0  0  0  0  0  0
    6.2832   -7.1906   15.6927 C   0  0  0  0  0  0  0  0  0  0  0  0
    9.4105   -6.1129   17.0303 O   0  0  0  0  0  0  0  0  0  0  0  0
   13.3472   -3.1412   13.6281 C   0  0  0  0  0  0  0  0  0  0  0  0
   11.1458   -4.3192   21.1548 O   0  0  0  0  0  0  0  0  0  0  0  0
    7.7263   -7.5189   17.9416 C   0  0  0  0  0  0  0  0  0  0  0  0
   12.1495   -2.9941   14.4657 C   0  0  0  0  0  0  0  0  0  0  0  0
   13.0968   -3.4626   12.3557 N   0  0  0  0  0  0  0  0  0  0  0  0
    0.5707   -7.0097   13.9289 C   0  0  0  0  0  0  0  0  0  0  0  0
   11.9412   -5.2696   21.7823 He  0  0  0  0  0  0  0  0  0  0  0  0
  1 18  4  0
  1 21  4  0
  2 28  2  0
  3 14  1  0
  3 21  1  0
  4  6  4  0
  4 13  4  0
  4 32  1  0
  5  7  4  0
  5 10  4  0
  5 24  1  0
  6  9  4  0
  7 23  4  0
  8 22  4  0
  8 25  4  0
  8 27  1  0
  8 31  2  0
  9 29  4  0
 11 18  4  0
 11 19  4  0
 11 29  1  0
 12 19  2  0
 12 32  1  0
 14 31  1  0
 15 17  4  0
 15 23  3  0
 15 30  4  0
 16 25  1  0
 16 32  3  0
 16 33  4  0
 17 22  1  0
 17 26  4  0
 19 20  4  0
 20 21  4  0
 20 27  1  0
 22 24  1  0
 23 32  3  0
 23 33  4  0
 24 33  2  0
 25 26  4  0
 26 28  4  0
 28 31  1  0
 28 32  1  0
M  END
$$$$

 Created by Python create_sdf_string function

 34 37  0  0  0  0  0  0  0  0999 V2000
   11.2121   -3.1037   17.7282 C   0  0  0  0  0  0  0  0  0  0  0  0
   14.4023   -3.0449   14.0409 O   0  0  0  0  0  0  0  0  0  0  0  0
   10.5646   -4.2030   15.7381 O   0  0  0  0  0  0  0  0  0  0  0  0
   11.7302   -4.2961   23.8870 C   0  0  0  0  0  0  0  0  0  0  0  0
    2.4299   -8.1483   15.4586 C   0  0  0  0  0  0  0  0  0  0  0  0
   10.8632   -3.3902   23.3821 N   0  0  0  0  0  0  0  0  0  0  0  0
    2.7380   -6.9753   14.8545 C   0  0  0  0  0  0  0  0  0  0  0  0
    8.1998   -6.7637   16.9453 C   0  0  0  0  0  0  0  0  0  0  0  0
   10.5922   -3.3545   22.0491 C   0  0  0  0  0  0  0  0  0  0  0  0
   11.9407   -5.2706   21.7454 C   0  0  0  0  0  0  0  0  0  0  0  0
    1.2250   -8.7631   15.2972 C   0  0  0  0  0  0  0  0  0  0  0  0
   10.9472   -4.2360   19.8029 C   0  0  0  0  0  0  0  0  0  0  0  0
   12.4261   -2.7419   11.4720 C   0  0  0  0  0  0  0  0  0  0  0  0
   12.2642   -5.2713   23.0899 C   0  0  0  0  0  0  0  0  0  0  0  0
   11.7635   -4.2286   15.0563 C   0  0  0  0  0  0  0  0  0  0  0  0
    6.5500   -8.1389   17.7937 C   0  0  0  0  0  0  0  0  0  0  0  0
    0.2991   -8.1854   14.4928 C   0  0  0  0  0  0  0  0  0  0  0  0
    5.8525   -7.9514   16.6817 C   0  0  0  0  0  0  0  0  0  0  0  0
   11.2931   -3.1203   19.0794 C   0  0  0  0  0  0  0  0  0  0  0  0
   10.3432   -5.2726   19.1262 C   0  0  0  0  0  0  0  0  0  0  0  0
   10.1157   -5.2205   17.7789 C   0  0  0  0  0  0  0  0  0  0  0  0
   10.6613   -4.1640   17.1175 C   0  0  0  0  0  0  0  0  0  0  0  0
    4.6102   -8.5761   16.5968 O   0  0  0  0  0  0  0  0  0  0  0  0
    1.7960   -6.3845   14.0404 C   0  0  0  0  0  0  0  0  0  0  0  0
    3.4049   -8.8145   16.3340 C   0  0  0  0  0  0  0  0  0  0  0  0
    7.5088   -6.5980   15.7925 C   0  0  0  0  0  0  0  0  0  0  0  0
    6.3131   -7.1881   15.6696 C   0  0  0  0  0  0  0  0  0  0  0  0
    9.4292   -6.1512   17.0595 O   0  0  0  0  0  0  0  0  0  0  0  0
   13.3217   -3.1644   13.5925 C   0  0  0  0  0  0  0  0  0  0  0  0
   11.1635   -4.3021   21.1693 C   0  0  0  0  0  0  0  0  0  0  0  0
    7.7255   -7.5369   17.9365 C   0  0  0  0  0  0  0  0  0  0  0  0
   12.1215   -3.0093   14.4285 C   0  0  0  0  0  0  0  0  0  0  0  0
   13.0770   -3.4424   12.3197 N   0  0  0  0  0  0  0  0  0  0  0  0
    0.5717   -6.9955   13.8876 C   0  0  0  0  0  0  0  0  0  0  0  0
  1 19  4  0
  1 22  4  0
  2 29  2  0
  3 15  1  0
  3 22  1  0
  4  6  4  0
  4 14  4  0
  5  7  4  0
  5 11  4  0
  5 25  1  0
  6  9  4  0
  7 24  4  0
  8 26  4  0
  8 28  1  0
  8 31  4  0
  9 30  4  0
 10 14  4  0
 10 30  4  0
 11 17  4  0
 12 19  4  0
 12 20  4  0
 12 30  1  0
 13 33  1  0
 15 32  1  0
 16 18  4  0
 16 31  4  0
 17 34  4  0
 18 23  1  0
 18 27  4  0
 20 21  4  0
 21 22  4  0
 21 28  1  0
 23 25  1  0
 24 34  4  0
 26 27  4  0
 29 32  1  0
 29 33  1  0
M  END
$$$$

 Created by Python create_sdf_string function

 34 43  0  0  0  0  0  0  0  0999 V2000
   11.2133   -3.1244   17.7539 C   0  0  0  0  0  0  0  0  0  0  0  0
   14.4268   -3.0515   14.0392 O   0  0  0  0  0  0  0  0  0  0  0  0
   10.5175   -4.1647   15.7162 O   0  0  0  0  0  0  0  0  0  0  0  0
   11.7625   -4.3055   23.9025 C   0  0  0  0  0  0  0  0  0  0  0  0
    2.4316   -8.1837   15.4665 C   0  0  0  0  0  0  0  0  0  0  0  0
   10.8795   -3.3845   23.3930 N   0  0  0  0  0  0  0  0  0  0  0  0
    2.7746   -6.9539   14.8738 C   0  0  0  0  0  0  0  0  0  0  0  0
    8.2034   -6.7291   16.9461 C   0  0  0  0  0  0  0  0  0  0  0  0
   10.6263   -3.3752   22.0667 C   0  0  0  0  0  0  0  0  0  0  0  0
   11.9487   -5.3040   21.7194 C   0  0  0  0  0  0  0  0  0  0  0  0
    1.2635   -8.7424   15.3307 C   0  0  0  0  0  0  0  0  0  0  0  0
   10.9489   -4.2273   19.8038 C   0  0  0  0  0  0  0  0  0  0  0  0
   12.4205   -2.7050   11.5242 C   0  0  0  0  0  0  0  0  0  0  0  0
   12.2254   -5.2976   23.0879 C   0  0  0  0  0  0  0  0  0  0  0  0
   11.7471   -4.2324   15.0700 C   0  0  0  0  0  0  0  0  0  0  0  0
    6.5303   -8.1424   17.8029 C   0  0  0  0  0  0  0  0  0  0  0  0
    0.2839   -8.1586   14.5317 C   0  0  0  0  0  0  0  0  0  0  0  0
    5.8696   -7.9366   16.7104 C   0  0  0  0  0  0  0  0  0  0  0  0
   11.2531   -3.1552   19.0764 C   0  0  0  0  0  0  0  0  0  0  0  0
   10.3739   -5.2984   19.1066 C   0  0  0  0  0  0  0  0  0  0  0  0
   10.0928   -5.2254   17.7727 C   0  0  0  0  0  0  0  0  0  0  0  0
   10.6658   -4.1800   17.0931 C   0  0  0  0  0  0  0  0  0  0  0  0
    4.6677   -8.5498   16.6021 O   0  0  0  0  0  0  0  0  0  0  0  0
    1.8266   -6.3525   14.0038 C   0  0  0  0  0  0  0  0  0  0  0  0
    3.3874   -8.8154   16.2970 C   0  0  0  0  0  0  0  0  0  0  0  0
    7.5200   -6.6398   15.7731 C   0  0  0  0  0  0  0  0  0  0  0  0
    6.2961   -7.2005   15.6640 C   0  0  0  0  0  0  0  0  0  0  0  0
    9.4282   -6.1291   17.0631 O   0  0  0  0  0  0  0  0  0  0  0  0
   13.3262   -3.1958   13.6218 C   0  0  0  0  0  0  0  0  0  0  0  0
   11.1850   -4.3066   21.1477 C   0  0  0  0  0  0  0  0  0  0  0  0
    7.7114   -7.5384   17.9815 C   0  0  0  0  0  0  0  0  0  0  0  0
   12.0930   -2.9876   14.4278 C   0  0  0  0  0  0  0  0  0  0  0  0
   13.0936   -3.4177   12.3342 N   0  0  0  0  0  0  0  0  0  0  0  0
    0.5686   -6.9692   13.9008 C   0  0  0  0  0  0  0  0  0  0  0  0
  1 19  4  0
  1 22  4  0
  2 28  3  0
  2 29  2  0
  3 15  1  0
  3 22  1  0
  4  6  4  0
  4 12  1  0
  4 14  4  0
  5  7  4  0
  5 11  4  0
  5 13  4  0
  5 25  1  0
  6  9  4  0
  6 20  3  0
  7 24  4  0
  8 26  4  0
  8 28  1  0
  8 31  4  0
  9 16  2  0
  9 30  4  0
 10 14  4  0
 10 30  4  0
 11 17  4  0
 12 19  4  0
 12 20  4  0
 12 30  1  0
 13 33  1  0
 15 32  1  0
 16 18  4  0
 16 31  4  0
 17 34  4  0
 18 23  1  0
 18 27  4  0
 19 34  2  0
 20 21  4  0
 21 22  4  0
 21 28  1  0
 23 25  1  0
 24 34  4  0
 26 27  4  0
 29 32  1  0
 29 33  1  0
M  END
$$$$

 Created by Python create_sdf_string function

 34 37  0  0  0  0  0  0  0  0999 V2000
   11.2012   -3.1228   17.7349 C   0  0  0  0  0  0  0  0  0  0  0  0
   14.3987   -3.0579   14.0149 O   0  0  0  0  0  0  0  0  0  0  0  0
   10.5511   -4.1762   15.7357 O   0  0  0  0  0  0  0  0  0  0  0  0
   11.7455   -4.3372   23.9000 C   0  0  0  0  0  0  0  0  0  0  0  0
    2.4371   -8.1331   15.4480 C   0  0  0  0  0  0  0  0  0  0  0  0
   10.8971   -3.3982   23.3796 N   0  0  0  0  0  0  0  0  0  0  0  0
    2.7471   -6.9658   14.8408 C   0  0  0  0  0  0  0  0  0  0  0  0
    8.2011   -6.7583   16.9515 C   0  0  0  0  0  0  0  0  0  0  0  0
   10.6387   -3.3623   22.0624 C   0  0  0  0  0  0  0  0  0  0  0  0
   11.9515   -5.3168   21.7286 C   0  0  0  0  0  0  0  0  0  0  0  0
    1.2223   -8.7098   15.2917 C   0  0  0  0  0  0  0  0  0  0  0  0
   10.9490   -4.2535   19.8023 C   0  0  0  0  0  0  0  0  0  0  0  0
   12.4205   -2.7037   11.5090 C   0  0  0  0  0  0  0  0  0  0  0  0
   12.2459   -5.3241   23.0764 C   0  0  0  0  0  0  0  0  0  0  0  0
   11.7636   -4.2300   15.0606 C   0  0  0  0  0  0  0  0  0  0  0  0
    6.5591   -8.1219   17.8024 C   0  0  0  0  0  0  0  0  0  0  0  0
    0.2862   -8.1388   14.5205 C   0  0  0  0  0  0  0  0  0  0  0  0
    5.8665   -7.9392   16.6928 C   0  0  0  0  0  0  0  0  0  0  0  0
   11.2798   -3.1269   19.0795 C   0  0  0  0  0  0  0  0  0  0  0  0
   10.3465   -5.2912   19.1213 C   0  0  0  0  0  0  0  0  0  0  0  0
   10.0999   -5.2326   17.7694 C   0  0  0  0  0  0  0  0  0  0  0  0
   10.6587   -4.1748   17.1045 C   0  0  0  0  0  0  0  0  0  0  0  0
    4.6170   -8.5582   16.6070 O   0  0  0  0  0  0  0  0  0  0  0  0
    1.8305   -6.3513   14.0248 C   0  0  0  0  0  0  0  0  0  0  0  0
    3.4013   -8.8116   16.2997 C   0  0  0  0  0  0  0  0  0  0  0  0
    7.5172   -6.6313   15.7805 C   0  0  0  0  0  0  0  0  0  0  0  0
    6.3119   -7.2036   15.6718 C   0  0  0  0  0  0  0  0  0  0  0  0
    9.4050   -6.1412   17.0561 O   0  0  0  0  0  0  0  0  0  0  0  0
   13.3017   -3.1792   13.5816 C   0  0  0  0  0  0  0  0  0  0  0  0
   11.1779   -4.3110   21.1802 C   0  0  0  0  0  0  0  0  0  0  0  0
    7.7296   -7.5284   17.9685 C   0  0  0  0  0  0  0  0  0  0  0  0
   12.0921   -3.0134   14.4037 C   0  0  0  0  0  0  0  0  0  0  0  0
   13.0750   -3.4061   12.3124 N   0  0  0  0  0  0  0  0  0  0  0  0
    0.5625   -6.9567   13.8827 C   0  0  0  0  0  0  0  0  0  0  0  0
  1 19  4  0
  1 22  4  0
  2 29  2  0
  3 15  1  0
  3 22  1  0
  4  6  4  0
  4 14  4  0
  5  7  4  0
  5 11  4  0
  5 25  1  0
  6  9  4  0
  7 24  4  0
  8 26  4  0
  8 28  1  0
  8 31  4  0
  9 30  4  0
 10 14  4  0
 10 30  4  0
 11 17  4  0
 12 19  4  0
 12 20  4  0
 12 30  1  0
 13 33  1  0
 15 32  1  0
 16 18  4  0
 16 31  4  0
 17 34  4  0
 18 23  1  0
 18 27  4  0
 20 21  4  0
 21 22  4  0
 21 28  1  0
 23 25  1  0
 24 34  4  0
 26 27  4  0
 29 32  1  0
 29 33  1  0
M  END
$$$$

 Created by Python create_sdf_string function

 34 41  0  0  0  0  0  0  0  0999 V2000
   11.2015   -3.1201   17.7744 C   0  0  0  0  0  0  0  0  0  0  0  0
   14.3932   -3.0564   14.0059 O   0  0  0  0  0  0  0  0  0  0  0  0
   10.5664   -4.1929   15.7433 O   0  0  0  0  0  0  0  0  0  0  0  0
   11.7529   -4.3437   23.8787 C   0  0  0  0  0  0  0  0  0  0  0  0
    2.4483   -8.1029   15.4691 C   0  0  0  0  0  0  0  0  0  0  0  0
   10.8820   -3.3809   23.4063 N   0  0  0  0  0  0  0  0  0  0  0  0
    2.7380   -6.9541   14.8260 C   0  0  0  0  0  0  0  0  0  0  0  0
    8.1930   -6.7979   16.9362 C   0  0  0  0  0  0  0  0  0  0  0  0
   10.5956   -3.3356   22.0126 C   0  0  0  0  0  0  0  0  0  0  0  0
   11.9657   -5.3071   21.7677 C   0  0  0  0  0  0  0  0  0  0  0  0
    1.2020   -8.7053   15.3340 C   0  0  0  0  0  0  0  0  0  0  0  0
   10.9658   -4.2836   19.8079 C   0  0  0  0  0  0  0  0  0  0  0  0
   12.4192   -2.6942   11.4912 C   0  0  0  0  0  0  0  0  0  0  0  0
   12.2643   -5.2931   23.0818 C   0  0  0  0  0  0  0  0  0  0  0  0
   11.7766   -4.2598   15.0218 C   0  0  0  0  0  0  0  0  0  0  0  0
    6.5537   -8.1266   17.7989 C   0  0  0  0  0  0  0  0  0  0  0  0
    0.2525   -8.1398   14.5265 C   0  0  0  0  0  0  0  0  0  0  0  0
    5.8653   -7.9228   16.6624 C   0  0  0  0  0  0  0  0  0  0  0  0
   11.2913   -3.1436   19.0888 C   0  0  0  0  0  0  0  0  0  0  0  0
   10.3416   -5.2731   19.0971 C   0  0  0  0  0  0  0  0  0  0  0  0
   10.1219   -5.2197   17.7502 C   0  0  0  0  0  0  0  0  0  0  0  0
   10.6437   -4.1700   17.1193 C   0  0  0  0  0  0  0  0  0  0  0  0
    4.6042   -8.5829   16.6102 O   0  0  0  0  0  0  0  0  0  0  0  0
    1.8320   -6.3698   14.0358 C   0  0  0  0  0  0  0  0  0  0  0  0
    3.3928   -8.8194   16.3182 C   0  0  0  0  0  0  0  0  0  0  0  0
    7.4823   -6.6047   15.7694 C   0  0  0  0  0  0  0  0  0  0  0  0
    6.3064   -7.2106   15.6563 C   0  0  0  0  0  0  0  0  0  0  0  0
    9.4195   -6.1365   17.0800 O   0  0  0  0  0  0  0  0  0  0  0  0
   13.2966   -3.2160   13.6142 C   0  0  0  0  0  0  0  0  0  0  0  0
   11.2151   -4.3253   21.1853 C   0  0  0  0  0  0  0  0  0  0  0  0
    7.7106   -7.5216   17.9545 C   0  0  0  0  0  0  0  0  0  0  0  0
   12.0688   -3.0376   14.4001 C   0  0  0  0  0  0  0  0  0  0  0  0
   13.0744   -3.4175   12.3331 N   0  0  0  0  0  0  0  0  0  0  0  0
    0.5400   -6.9477   13.8992 C   0  0  0  0  0  0  0  0  0  0  0  0
  1 19  4  0
  1 22  4  0
  2 29  2  0
  3 15  1  0
  3 22  1  0
  4  6  4  0
  4 14  4  0
  5  7  4  0
  5 11  4  0
  5 19  4  0
  5 25  1  0
  6  9  4  0
  7 24  4  0
  8 26  4  0
  8 28  1  0
  8 31  4  0
  9 30  4  0
 10 14  4  0
 10 30  4  0
 11 17  4  0
 12 19  4  0
 12 20  4  0
 12 30  1  0
 13 33  2  0
 13 34  4  0
 15 21  2  0
 15 32  1  0
 16 18  4  0
 16 31  4  0
 17 34  4  0
 18 23  1  0
 18 27  4  0
 20 21  4  0
 21 22  4  0
 21 28  1  0
 23 25  1  0
 24 34  4  0
 26 27  4  0
 26 31  3  0
 29 32  1  0
 29 33  1  0
M  END
$$$$

 Created by Python create_sdf_string function

 34 37  0  0  0  0  0  0  0  0999 V2000
   11.2051   -3.1129   17.7565 C   0  0  0  0  0  0  0  0  0  0  0  0
   14.3593   -3.0659   13.9906 O   0  0  0  0  0  0  0  0  0  0  0  0
   10.5751   -4.1963   15.7428 O   0  0  0  0  0  0  0  0  0  0  0  0
   11.7337   -4.3487   23.8879 C   0  0  0  0  0  0  0  0  0  0  0  0
    2.4175   -8.1204   15.4559 C   0  0  0  0  0  0  0  0  0  0  0  0
   10.8900   -3.3946   23.3814 N   0  0  0  0  0  0  0  0  0  0  0  0
    2.7303   -6.9660   14.8198 C   0  0  0  0  0  0  0  0  0  0  0  0
    8.1858   -6.7747   16.9362 C   0  0  0  0  0  0  0  0  0  0  0  0
   10.6255   -3.3487   22.0451 C   0  0  0  0  0  0  0  0  0  0  0  0
   11.9720   -5.3235   21.7414 C   0  0  0  0  0  0  0  0  0  0  0  0
    1.1958   -8.6904   15.3170 C   0  0  0  0  0  0  0  0  0  0  0  0
   10.9627   -4.2604   19.8060 C   0  0  0  0  0  0  0  0  0  0  0  0
   12.4396   -2.7259   11.4966 C   0  0  0  0  0  0  0  0  0  0  0  0
   12.2721   -5.3217   23.0808 C   0  0  0  0  0  0  0  0  0  0  0  0
   11.7754   -4.2603   15.0537 C   0  0  0  0  0  0  0  0  0  0  0  0
    6.5428   -8.1259   17.7840 C   0  0  0  0  0  0  0  0  0  0  0  0
    0.2567   -8.1209   14.5284 C   0  0  0  0  0  0  0  0  0  0  0  0
    5.8515   -7.9461   16.6827 C   0  0  0  0  0  0  0  0  0  0  0  0
   11.3087   -3.1277   19.1022 C   0  0  0  0  0  0  0  0  0  0  0  0
   10.3455   -5.2799   19.1195 C   0  0  0  0  0  0  0  0  0  0  0  0
   10.1186   -5.2257   17.7786 C   0  0  0  0  0  0  0  0  0  0  0  0
   10.6673   -4.1673   17.1200 C   0  0  0  0  0  0  0  0  0  0  0  0
    4.5930   -8.5672   16.6078 O   0  0  0  0  0  0  0  0  0  0  0  0
    1.8038   -6.3590   14.0264 C   0  0  0  0  0  0  0  0  0  0  0  0
    3.3823   -8.8025   16.3053 C   0  0  0  0  0  0  0  0  0  0  0  0
    7.5039   -6.6195   15.7747 C   0  0  0  0  0  0  0  0  0  0  0  0
    6.3086   -7.2018   15.6606 C   0  0  0  0  0  0  0  0  0  0  0  0
    9.4167   -6.1514   17.0674 O   0  0  0  0  0  0  0  0  0  0  0  0
   13.2680   -3.1950   13.5612 C   0  0  0  0  0  0  0  0  0  0  0  0
   11.1923   -4.3267   21.1808 C   0  0  0  0  0  0  0  0  0  0  0  0
    7.7228   -7.5294   17.9411 C   0  0  0  0  0  0  0  0  0  0  0  0
   12.0664   -3.0506   14.3843 C   0  0  0  0  0  0  0  0  0  0  0  0
   13.0580   -3.3971   12.3239 N   0  0  0  0  0  0  0  0  0  0  0  0
    0.5393   -6.9406   13.8850 C   0  0  0  0  0  0  0  0  0  0  0  0
  1 19  4  0
  1 22  4  0
  2 29  2  0
  3 15  1  0
  3 22  1  0
  4  6  4  0
  4 14  4  0
  5  7  4  0
  5 11  4  0
  5 25  1  0
  6  9  4  0
  7 24  4  0
  8 26  4  0
  8 28  1  0
  8 31  4  0
  9 30  4  0
 10 14  4  0
 10 30  4  0
 11 17  4  0
 12 19  4  0
 12 20  4  0
 12 30  1  0
 13 33  1  0
 15 32  1  0
 16 18  4  0
 16 31  4  0
 17 34  4  0
 18 23  1  0
 18 27  4  0
 20 21  4  0
 21 22  4  0
 21 28  1  0
 23 25  1  0
 24 34  4  0
 26 27  4  0
 29 32  1  0
 29 33  1  0
M  END
$$$$

 Created by Python create_sdf_string function

 34 38  0  0  0  0  0  0  0  0999 V2000
   11.2115   -3.1250   17.7574 C   0  0  0  0  0  0  0  0  0  0  0  0
   14.3533   -3.0777   13.9934 O   0  0  0  0  0  0  0  0  0  0  0  0
   10.5636   -4.2157   15.7322 O   0  0  0  0  0  0  0  0  0  0  0  0
   11.7431   -4.3473   23.8738 C   0  0  0  0  0  0  0  0  0  0  0  0
   10.8842   -3.3876   23.3792 N   0  0  0  0  0  0  0  0  0  0  0  0
    2.7245   -6.9728   14.8409 C   0  0  0  0  0  0  0  0  0  0  0  0
    8.2216   -6.7533   16.9148 C   0  0  0  0  0  0  0  0  0  0  0  0
   10.6290   -3.3325   22.0379 C   0  0  0  0  0  0  0  0  0  0  0  0
   11.9603   -5.3106   21.7298 C   0  0  0  0  0  0  0  0  0  0  0  0
    1.2224   -8.7052   15.3386 C   0  0  0  0  0  0  0  0  0  0  0  0
   10.9721   -4.2805   19.8060 C   0  0  0  0  0  0  0  0  0  0  0  0
   12.4526   -2.7380   11.5162 C   0  0  0  0  0  0  0  0  0  0  0  0
   12.2689   -5.3139   23.0554 C   0  0  0  0  0  0  0  0  0  0  0  0
   11.7698   -4.2882   15.0418 C   0  0  0  0  0  0  0  0  0  0  0  0
    0.2526   -8.1141   14.5234 C   0  0  0  0  0  0  0  0  0  0  0  0
    5.8511   -7.9592   16.6838 C   0  0  0  0  0  0  0  0  0  0  0  0
   11.3114   -3.1514   19.1002 C   0  0  0  0  0  0  0  0  0  0  0  0
   10.3626   -5.2748   19.1632 C   0  0  0  0  0  0  0  0  0  0  0  0
   10.1120   -5.2361   17.7376 C   0  0  0  0  0  0  0  0  0  0  0  0
   10.6462   -4.1478   17.1098 C   0  0  0  0  0  0  0  0  0  0  0  0
    4.5812   -8.5742   16.6150 O   0  0  0  0  0  0  0  0  0  0  0  0
    1.8143   -6.3454   14.0056 C   0  0  0  0  0  0  0  0  0  0  0  0
    3.3908   -8.7753   16.2734 C   0  0  0  0  0  0  0  0  0  0  0  0
    7.5112   -6.6336   15.7863 C   0  0  0  0  0  0  0  0  0  0  0  0
    6.3138   -7.2032   15.6430 C   0  0  0  0  0  0  0  0  0  0  0  0
    9.4087   -6.1842   17.0614 O   0  0  0  0  0  0  0  0  0  0  0  0
   13.2656   -3.2077   13.5681 C   0  0  0  0  0  0  0  0  0  0  0  0
   11.1638   -4.3485   21.1569 C   0  0  0  0  0  0  0  0  0  0  0  0
    7.7184   -7.5663   17.9498 C   0  0  0  0  0  0  0  0  0  0  0  0
   12.0630   -3.0575   14.3959 C   0  0  0  0  0  0  0  0  0  0  0  0
   13.0362   -3.4303   12.3310 N   0  0  0  0  0  0  0  0  0  0  0  0
    0.5286   -6.9495   13.8826 C   0  0  0  0  0  0  0  0  0  0  0  0
    2.4264   -8.1092   15.4668 He  0  0  0  0  0  0  0  0  0  0  0  0
    6.5382   -8.1274   17.7608 He  0  0  0  0  0  0  0  0  0  0  0  0
  1  5  1  0
  1 17  4  0
  1 20  4  0
  2 10  2  0
  2 17  1  0
  2 27  2  0
  3 14  1  0
  3 20  1  0
  4  5  4  0
  4 13  4  0
  5  8  4  0
  6 22  4  0
  7 24  4  0
  7 26  1  0
  7 29  4  0
  8  9  1  0
  8 28  4  0
  9 13  4  0
  9 28  4  0
 10 15  4  0
 11 17  4  0
 11 18  4  0
 11 28  1  0
 12 31  1  0
 14 30  1  0
 15 32  4  0
 16 21  1  0
 16 25  4  0
 18 19  4  0
 18 30  1  0
 19 20  4  0
 19 26  1  0
 19 27  1  0
 21 23  1  0
 22 32  4  0
 24 25  4  0
 27 30  1  0
 27 31  1  0
M  END
$$$$

 Created by Python create_sdf_string function

 34 37  0  0  0  0  0  0  0  0999 V2000
   11.2070   -3.1242   17.7379 C   0  0  0  0  0  0  0  0  0  0  0  0
   14.3307   -3.0838   13.9689 O   0  0  0  0  0  0  0  0  0  0  0  0
   10.5694   -4.2172   15.7326 O   0  0  0  0  0  0  0  0  0  0  0  0
   11.7339   -4.3676   23.8945 C   0  0  0  0  0  0  0  0  0  0  0  0
    2.4073   -8.1084   15.4410 C   0  0  0  0  0  0  0  0  0  0  0  0
   10.9043   -3.4056   23.3835 N   0  0  0  0  0  0  0  0  0  0  0  0
    2.7153   -6.9624   14.8176 C   0  0  0  0  0  0  0  0  0  0  0  0
    8.1965   -6.7865   16.9336 C   0  0  0  0  0  0  0  0  0  0  0  0
   10.6526   -3.3611   22.0549 C   0  0  0  0  0  0  0  0  0  0  0  0
   11.9667   -5.3298   21.7313 C   0  0  0  0  0  0  0  0  0  0  0  0
    1.1975   -8.6770   15.3088 C   0  0  0  0  0  0  0  0  0  0  0  0
   10.9562   -4.2530   19.7975 C   0  0  0  0  0  0  0  0  0  0  0  0
   12.4436   -2.7223   11.4599 C   0  0  0  0  0  0  0  0  0  0  0  0
   12.2747   -5.3402   23.0834 C   0  0  0  0  0  0  0  0  0  0  0  0
   11.7781   -4.2758   15.0573 C   0  0  0  0  0  0  0  0  0  0  0  0
    6.5441   -8.1339   17.7633 C   0  0  0  0  0  0  0  0  0  0  0  0
    0.2618   -8.1065   14.5277 C   0  0  0  0  0  0  0  0  0  0  0  0
    5.8503   -7.9489   16.6751 C   0  0  0  0  0  0  0  0  0  0  0  0
   11.3144   -3.1326   19.0887 C   0  0  0  0  0  0  0  0  0  0  0  0
   10.3378   -5.2912   19.1200 C   0  0  0  0  0  0  0  0  0  0  0  0
   10.1124   -5.2419   17.7683 C   0  0  0  0  0  0  0  0  0  0  0  0
   10.6635   -4.1810   17.1067 C   0  0  0  0  0  0  0  0  0  0  0  0
    4.5812   -8.5563   16.6083 O   0  0  0  0  0  0  0  0  0  0  0  0
    1.7999   -6.3452   14.0109 C   0  0  0  0  0  0  0  0  0  0  0  0
    3.3808   -8.7729   16.2726 C   0  0  0  0  0  0  0  0  0  0  0  0
    7.5102   -6.6340   15.7762 C   0  0  0  0  0  0  0  0  0  0  0  0
    6.3039   -7.2125   15.6540 C   0  0  0  0  0  0  0  0  0  0  0  0
    9.4160   -6.1719   17.0566 O   0  0  0  0  0  0  0  0  0  0  0  0
   13.2493   -3.2073   13.5380 C   0  0  0  0  0  0  0  0  0  0  0  0
   11.1878   -4.3234   21.1770 C   0  0  0  0  0  0  0  0  0  0  0  0
    7.7226   -7.5610   17.9324 C   0  0  0  0  0  0  0  0  0  0  0  0
   12.0578   -3.0666   14.3696 C   0  0  0  0  0  0  0  0  0  0  0  0
   13.0165   -3.4554   12.2702 N   0  0  0  0  0  0  0  0  0  0  0  0
    0.5309   -6.9323   13.8670 C   0  0  0  0  0  0  0  0  0  0  0  0
  1 19  4  0
  1 22  4  0
  2 29  2  0
  3 15  1  0
  3 22  1  0
  4  6  4  0
  4 14  4  0
  5  7  4  0
  5 11  4  0
  5 25  1  0
  6  9  4  0
  7 24  4  0
  8 26  4  0
  8 28  1  0
  8 31  4  0
  9 30  4  0
 10 14  4  0
 10 30  4  0
 11 17  4  0
 12 19  4  0
 12 20  4  0
 12 30  1  0
 13 33  1  0
 15 32  1  0
 16 18  4  0
 16 31  4  0
 17 34  4  0
 18 23  1  0
 18 27  4  0
 20 21  4  0
 21 22  4  0
 21 28  1  0
 23 25  1  0
 24 34  4  0
 26 27  4  0
 29 32  1  0
 29 33  1  0
M  END
$$$$

 Created by Python create_sdf_string function

 34 38  0  0  0  0  0  0  0  0999 V2000
   11.1801   -3.1210   17.7354 C   0  0  0  0  0  0  0  0  0  0  0  0
   14.3164   -3.0889   13.9570 O   0  0  0  0  0  0  0  0  0  0  0  0
   10.5652   -4.1927   15.7304 O   0  0  0  0  0  0  0  0  0  0  0  0
   11.7489   -4.3852   23.9128 C   0  0  0  0  0  0  0  0  0  0  0  0
    2.3872   -8.1202   15.4536 C   0  0  0  0  0  0  0  0  0  0  0  0
   10.8957   -3.3999   23.3897 N   0  0  0  0  0  0  0  0  0  0  0  0
    2.7018   -6.9734   14.8155 C   0  0  0  0  0  0  0  0  0  0  0  0
    8.1966   -6.7855   16.9426 C   0  0  0  0  0  0  0  0  0  0  0  0
   10.6523   -3.3636   22.0352 C   0  0  0  0  0  0  0  0  0  0  0  0
   11.9304   -5.3307   21.7488 C   0  0  0  0  0  0  0  0  0  0  0  0
    1.1890   -8.6968   15.3031 C   0  0  0  0  0  0  0  0  0  0  0  0
   12.4292   -2.7161   11.4582 C   0  0  0  0  0  0  0  0  0  0  0  0
   12.2865   -5.3551   23.1042 C   0  0  0  0  0  0  0  0  0  0  0  0
   11.8067   -4.2644   15.0525 C   0  0  0  0  0  0  0  0  0  0  0  0
    6.5527   -8.1115   17.7524 C   0  0  0  0  0  0  0  0  0  0  0  0
    0.2571   -8.1094   14.5110 C   0  0  0  0  0  0  0  0  0  0  0  0
    5.8612   -7.9584   16.6819 C   0  0  0  0  0  0  0  0  0  0  0  0
   11.3253   -3.1245   19.0891 C   0  0  0  0  0  0  0  0  0  0  0  0
   10.3451   -5.2864   19.1335 C   0  0  0  0  0  0  0  0  0  0  0  0
   10.0999   -5.2310   17.7781 C   0  0  0  0  0  0  0  0  0  0  0  0
   10.6524   -4.1693   17.1085 C   0  0  0  0  0  0  0  0  0  0  0  0
    4.5909   -8.5460   16.6261 O   0  0  0  0  0  0  0  0  0  0  0  0
    1.8082   -6.3423   13.9846 C   0  0  0  0  0  0  0  0  0  0  0  0
    3.3776   -8.7651   16.2676 C   0  0  0  0  0  0  0  0  0  0  0  0
    7.5018   -6.6395   15.7698 C   0  0  0  0  0  0  0  0  0  0  0  0
    6.2855   -7.2079   15.6617 C   0  0  0  0  0  0  0  0  0  0  0  0
    9.4148   -6.1598   17.0701 O   0  0  0  0  0  0  0  0  0  0  0  0
   13.2469   -3.2250   13.5506 C   0  0  0  0  0  0  0  0  0  0  0  0
   11.1991   -4.3048   21.1943 C   0  0  0  0  0  0  0  0  0  0  0  0
    7.7126   -7.5618   17.9171 C   0  0  0  0  0  0  0  0  0  0  0  0
   12.0442   -3.0587   14.3908 C   0  0  0  0  0  0  0  0  0  0  0  0
   12.9983   -3.4471   12.2953 N   0  0  0  0  0  0  0  0  0  0  0  0
    0.5270   -6.9408   13.8815 C   0  0  0  0  0  0  0  0  0  0  0  0
   10.9612   -4.2627   19.7880 He  0  0  0  0  0  0  0  0  0  0  0  0
  1 18  4  0
  1 21  4  0
  2 28  2  0
  3 14  1  0
  3 21  1  0
  4  5  4  0
  4  6  4  0
  4 13  4  0
  5  7  4  0
  5 11  4  0
  5 24  1  0
  6  9  4  0
  7 19  2  0
  7 23  4  0
  8 25  4  0
  8 27  1  0
  8 30  4  0
  9 29  4  0
 10 13  4  0
 10 29  4  0
 11 16  4  0
 12 32  1  0
 14 31  1  0
 15 17  4  0
 15 30  4  0
 16 33  4  0
 17 22  1  0
 17 26  4  0
 18 32  4  0
 19 20  4  0
 20 21  4  0
 20 27  1  0
 22 24  1  0
 23 33  4  0
 25 26  4  0
 26 31  2  0
 28 31  1  0
 28 32  1  0
M  END
$$$$

 Created by Python create_sdf_string function

 34 37  0  0  0  0  0  0  0  0999 V2000
   11.2005   -3.1172   17.7452 C   0  0  0  0  0  0  0  0  0  0  0  0
   14.2981   -3.0953   13.9271 O   0  0  0  0  0  0  0  0  0  0  0  0
   10.5827   -4.2011   15.7383 O   0  0  0  0  0  0  0  0  0  0  0  0
   11.7353   -4.3904   23.9088 C   0  0  0  0  0  0  0  0  0  0  0  0
    2.3837   -8.1044   15.4235 C   0  0  0  0  0  0  0  0  0  0  0  0
   10.9136   -3.4191   23.3812 N   0  0  0  0  0  0  0  0  0  0  0  0
    2.6958   -6.9608   14.7935 C   0  0  0  0  0  0  0  0  0  0  0  0
    8.1953   -6.7840   16.9356 C   0  0  0  0  0  0  0  0  0  0  0  0
   10.6642   -3.3530   22.0470 C   0  0  0  0  0  0  0  0  0  0  0  0
   11.9461   -5.3427   21.7278 C   0  0  0  0  0  0  0  0  0  0  0  0
    1.1651   -8.6716   15.2796 C   0  0  0  0  0  0  0  0  0  0  0  0
   10.9645   -4.2505   19.8031 C   0  0  0  0  0  0  0  0  0  0  0  0
   12.4351   -2.7151   11.4244 C   0  0  0  0  0  0  0  0  0  0  0  0
   12.2720   -5.3733   23.0802 C   0  0  0  0  0  0  0  0  0  0  0  0
   11.8058   -4.2528   15.0766 C   0  0  0  0  0  0  0  0  0  0  0  0
    6.5437   -8.1391   17.7769 C   0  0  0  0  0  0  0  0  0  0  0  0
    0.2446   -8.0930   14.5018 C   0  0  0  0  0  0  0  0  0  0  0  0
    5.8501   -7.9432   16.6808 C   0  0  0  0  0  0  0  0  0  0  0  0
   11.3169   -3.1227   19.0900 C   0  0  0  0  0  0  0  0  0  0  0  0
   10.3452   -5.2793   19.1449 C   0  0  0  0  0  0  0  0  0  0  0  0
   10.1034   -5.2362   17.7886 C   0  0  0  0  0  0  0  0  0  0  0  0
   10.6603   -4.1816   17.1167 C   0  0  0  0  0  0  0  0  0  0  0  0
    4.5713   -8.5386   16.6130 O   0  0  0  0  0  0  0  0  0  0  0  0
    1.7896   -6.3354   13.9856 C   0  0  0  0  0  0  0  0  0  0  0  0
    3.3580   -8.7717   16.2687 C   0  0  0  0  0  0  0  0  0  0  0  0
    7.5127   -6.6352   15.7724 C   0  0  0  0  0  0  0  0  0  0  0  0
    6.3086   -7.2082   15.6589 C   0  0  0  0  0  0  0  0  0  0  0  0
    9.4062   -6.1614   17.0691 O   0  0  0  0  0  0  0  0  0  0  0  0
   13.2109   -3.2162   13.5049 C   0  0  0  0  0  0  0  0  0  0  0  0
   11.1932   -4.3242   21.1803 C   0  0  0  0  0  0  0  0  0  0  0  0
    7.7336   -7.5553   17.9362 C   0  0  0  0  0  0  0  0  0  0  0  0
   12.0436   -3.0633   14.3559 C   0  0  0  0  0  0  0  0  0  0  0  0
   12.9695   -3.4518   12.2474 N   0  0  0  0  0  0  0  0  0  0  0  0
    0.5221   -6.9193   13.8550 C   0  0  0  0  0  0  0  0  0  0  0  0
  1 19  4  0
  1 22  4  0
  2 29  2  0
  3 15  1  0
  3 22  1  0
  4  6  4  0
  4 14  4  0
  5  7  4  0
  5 11  4  0
  5 25  1  0
  6  9  4  0
  7 24  4  0
  8 26  4  0
  8 28  1  0
  8 31  4  0
  9 30  4  0
 10 14  4  0
 10 30  4  0
 11 17  4  0
 12 19  4  0
 12 20  4  0
 12 30  1  0
 13 33  1  0
 15 32  1  0
 16 18  4  0
 16 31  4  0
 17 34  4  0
 18 23  1  0
 18 27  4  0
 20 21  4  0
 21 22  4  0
 21 28  1  0
 23 25  1  0
 24 34  4  0
 26 27  4  0
 29 32  1  0
 29 33  1  0
M  END
$$$$

 Created by Python create_sdf_string function

 34 40  0  0  0  0  0  0  0  0999 V2000
   11.1987   -3.1125   17.7429 C   0  0  0  0  0  0  0  0  0  0  0  0
   14.3108   -3.0998   13.9246 O   0  0  0  0  0  0  0  0  0  0  0  0
   10.5867   -4.2176   15.7274 O   0  0  0  0  0  0  0  0  0  0  0  0
   11.7379   -4.3962   23.9133 C   0  0  0  0  0  0  0  0  0  0  0  0
    2.4002   -8.1175   15.4282 C   0  0  0  0  0  0  0  0  0  0  0  0
   10.9147   -3.4058   23.3869 N   0  0  0  0  0  0  0  0  0  0  0  0
    2.7023   -6.9510   14.7925 C   0  0  0  0  0  0  0  0  0  0  0  0
    8.1912   -6.8073   16.9340 C   0  0  0  0  0  0  0  0  0  0  0  0
   10.6528   -3.3646   22.0391 C   0  0  0  0  0  0  0  0  0  0  0  0
   11.9406   -5.3346   21.7231 C   0  0  0  0  0  0  0  0  0  0  0  0
    1.1493   -8.6733   15.3041 C   0  0  0  0  0  0  0  0  0  0  0  0
   10.9596   -4.2430   19.8108 C   0  0  0  0  0  0  0  0  0  0  0  0
   12.4295   -2.7100   11.4307 C   0  0  0  0  0  0  0  0  0  0  0  0
   12.2680   -5.3816   23.0720 C   0  0  0  0  0  0  0  0  0  0  0  0
   11.8246   -4.2385   15.0832 C   0  0  0  0  0  0  0  0  0  0  0  0
    6.5491   -8.1427   17.7990 C   0  0  0  0  0  0  0  0  0  0  0  0
    0.2466   -8.1004   14.5178 C   0  0  0  0  0  0  0  0  0  0  0  0
    5.8636   -7.9215   16.6937 C   0  0  0  0  0  0  0  0  0  0  0  0
   11.3177   -3.1216   19.0943 C   0  0  0  0  0  0  0  0  0  0  0  0
   10.3568   -5.2898   19.1465 C   0  0  0  0  0  0  0  0  0  0  0  0
   10.0797   -5.2262   17.7876 C   0  0  0  0  0  0  0  0  0  0  0  0
   10.6573   -4.1728   17.1145 C   0  0  0  0  0  0  0  0  0  0  0  0
    4.5697   -8.5511   16.6147 O   0  0  0  0  0  0  0  0  0  0  0  0
    1.7871   -6.3520   13.9882 C   0  0  0  0  0  0  0  0  0  0  0  0
    3.3578   -8.7692   16.2778 C   0  0  0  0  0  0  0  0  0  0  0  0
    7.5039   -6.6295   15.7743 C   0  0  0  0  0  0  0  0  0  0  0  0
    6.3175   -7.2314   15.6592 C   0  0  0  0  0  0  0  0  0  0  0  0
    9.4258   -6.1582   17.0838 O   0  0  0  0  0  0  0  0  0  0  0  0
   13.2157   -3.2047   13.4931 C   0  0  0  0  0  0  0  0  0  0  0  0
   11.1955   -4.3108   21.1860 C   0  0  0  0  0  0  0  0  0  0  0  0
    7.7265   -7.5412   17.9275 C   0  0  0  0  0  0  0  0  0  0  0  0
   12.0422   -3.0684   14.3571 C   0  0  0  0  0  0  0  0  0  0  0  0
   12.9562   -3.4541   12.2582 N   0  0  0  0  0  0  0  0  0  0  0  0
    0.5191   -6.9185   13.8559 C   0  0  0  0  0  0  0  0  0  0  0  0
  1 19  4  0
  1 22  4  0
  2 29  2  0
  3  6  2  0
  3 15  1  0
  3 22  1  0
  4  6  4  0
  4 14  4  0
  5  7  4  0
  5 11  4  0
  5 25  1  0
  6  9  4  0
  7 24  4  0
  8 26  4  0
  8 28  1  0
  8 31  4  0
  9 13  4  0
  9 30  4  0
 10 14  4  0
 10 30  4  0
 11 17  4  0
 12 19  4  0
 12 20  4  0
 12 30  1  0
 13 33  1  0
 15 32  1  0
 16 18  4  0
 16 31  4  0
 17 34  4  0
 18 23  1  0
 18 25  3  0
 18 27  4  0
 20 21  4  0
 21 22  4  0
 21 28  1  0
 23 25  1  0
 24 34  4  0
 26 27  4  0
 29 32  1  0
 29 33  1  0
M  END
$$$$

 Created by Python create_sdf_string function

 34 37  0  0  0  0  0  0  0  0999 V2000
   11.2082   -3.1131   17.7459 C   0  0  0  0  0  0  0  0  0  0  0  0
   14.2852   -3.1017   13.8889 O   0  0  0  0  0  0  0  0  0  0  0  0
   10.6057   -4.2231   15.7469 O   0  0  0  0  0  0  0  0  0  0  0  0
   11.7333   -4.4109   23.9084 C   0  0  0  0  0  0  0  0  0  0  0  0
    2.3840   -8.1006   15.4200 C   0  0  0  0  0  0  0  0  0  0  0  0
   10.9241   -3.4245   23.3822 N   0  0  0  0  0  0  0  0  0  0  0  0
    2.6971   -6.9537   14.7784 C   0  0  0  0  0  0  0  0  0  0  0  0
    8.1937   -6.7889   16.9409 C   0  0  0  0  0  0  0  0  0  0  0  0
   10.6708   -3.3556   22.0618 C   0  0  0  0  0  0  0  0  0  0  0  0
   11.9505   -5.3558   21.7230 C   0  0  0  0  0  0  0  0  0  0  0  0
    1.1550   -8.6518   15.2838 C   0  0  0  0  0  0  0  0  0  0  0  0
   10.9641   -4.2433   19.8096 C   0  0  0  0  0  0  0  0  0  0  0  0
   12.4364   -2.7013   11.3923 C   0  0  0  0  0  0  0  0  0  0  0  0
   12.2619   -5.3952   23.0679 C   0  0  0  0  0  0  0  0  0  0  0  0
   11.8364   -4.2297   15.1029 C   0  0  0  0  0  0  0  0  0  0  0  0
    6.5418   -8.1377   17.7882 C   0  0  0  0  0  0  0  0  0  0  0  0
    0.2324   -8.0746   14.5004 C   0  0  0  0  0  0  0  0  0  0  0  0
    5.8567   -7.9400   16.6850 C   0  0  0  0  0  0  0  0  0  0  0  0
   11.3118   -3.1155   19.0927 C   0  0  0  0  0  0  0  0  0  0  0  0
   10.3475   -5.2764   19.1515 C   0  0  0  0  0  0  0  0  0  0  0  0
   10.1009   -5.2338   17.7975 C   0  0  0  0  0  0  0  0  0  0  0  0
   10.6689   -4.1799   17.1184 C   0  0  0  0  0  0  0  0  0  0  0  0
    4.5683   -8.5250   16.6057 O   0  0  0  0  0  0  0  0  0  0  0  0
    1.7782   -6.3335   13.9776 C   0  0  0  0  0  0  0  0  0  0  0  0
    3.3455   -8.7719   16.2736 C   0  0  0  0  0  0  0  0  0  0  0  0
    7.5166   -6.6372   15.7703 C   0  0  0  0  0  0  0  0  0  0  0  0
    6.3177   -7.2200   15.6621 C   0  0  0  0  0  0  0  0  0  0  0  0
    9.4108   -6.1680   17.0762 O   0  0  0  0  0  0  0  0  0  0  0  0
   13.1896   -3.2176   13.4686 C   0  0  0  0  0  0  0  0  0  0  0  0
   11.1960   -4.3242   21.1885 C   0  0  0  0  0  0  0  0  0  0  0  0
    7.7313   -7.5531   17.9431 C   0  0  0  0  0  0  0  0  0  0  0  0
   12.0349   -3.0820   14.3296 C   0  0  0  0  0  0  0  0  0  0  0  0
   12.9362   -3.4599   12.2125 N   0  0  0  0  0  0  0  0  0  0  0  0
    0.5139   -6.9096   13.8435 C   0  0  0  0  0  0  0  0  0  0  0  0
  1 19  4  0
  1 22  4  0
  2 29  2  0
  3 15  1  0
  3 22  1  0
  4  6  4  0
  4 14  4  0
  5  7  4  0
  5 11  4  0
  5 25  1  0
  6  9  4  0
  7 24  4  0
  8 26  4  0
  8 28  1  0
  8 31  4  0
  9 30  4  0
 10 14  4  0
 10 30  4  0
 11 17  4  0
 12 19  4  0
 12 20  4  0
 12 30  1  0
 13 33  1  0
 15 32  1  0
 16 18  4  0
 16 31  4  0
 17 34  4  0
 18 23  1  0
 18 27  4  0
 20 21  4  0
 21 22  4  0
 21 28  1  0
 23 25  1  0
 24 34  4  0
 26 27  4  0
 29 32  1  0
 29 33  1  0
M  END
$$$$

 Created by Python create_sdf_string function

 34 38  0  0  0  0  0  0  0  0999 V2000
   11.2049   -3.1051   17.7516 C   0  0  0  0  0  0  0  0  0  0  0  0
   14.2833   -3.1041   13.8894 O   0  0  0  0  0  0  0  0  0  0  0  0
   10.6039   -4.2271   15.7466 O   0  0  0  0  0  0  0  0  0  0  0  0
   11.7275   -4.4122   23.9000 C   0  0  0  0  0  0  0  0  0  0  0  0
    2.3891   -8.0951   15.4160 C   0  0  0  0  0  0  0  0  0  0  0  0
   10.9106   -3.4279   23.3806 N   0  0  0  0  0  0  0  0  0  0  0  0
    2.6934   -6.9507   14.7845 C   0  0  0  0  0  0  0  0  0  0  0  0
    8.1934   -6.7800   16.9361 C   0  0  0  0  0  0  0  0  0  0  0  0
   10.6819   -3.3538   22.0546 C   0  0  0  0  0  0  0  0  0  0  0  0
   11.9470   -5.3528   21.7225 C   0  0  0  0  0  0  0  0  0  0  0  0
    1.1510   -8.6509   15.2886 C   0  0  0  0  0  0  0  0  0  0  0  0
   10.9646   -4.2501   19.8196 C   0  0  0  0  0  0  0  0  0  0  0  0
   12.4272   -2.7075   11.3987 C   0  0  0  0  0  0  0  0  0  0  0  0
   12.2632   -5.3978   23.0694 C   0  0  0  0  0  0  0  0  0  0  0  0
   11.8440   -4.2226   15.0988 C   0  0  0  0  0  0  0  0  0  0  0  0
    6.5356   -8.1534   17.7770 C   0  0  0  0  0  0  0  0  0  0  0  0
    0.2319   -8.0592   14.4894 C   0  0  0  0  0  0  0  0  0  0  0  0
    5.8489   -7.9456   16.6889 C   0  0  0  0  0  0  0  0  0  0  0  0
   11.3150   -3.1164   19.0916 C   0  0  0  0  0  0  0  0  0  0  0  0
   10.3497   -5.2793   19.1567 C   0  0  0  0  0  0  0  0  0  0  0  0
   10.0937   -5.2291   17.8006 C   0  0  0  0  0  0  0  0  0  0  0  0
   10.6718   -4.1818   17.1159 C   0  0  0  0  0  0  0  0  0  0  0  0
    4.5652   -8.5306   16.6013 O   0  0  0  0  0  0  0  0  0  0  0  0
    1.7864   -6.3317   13.9735 C   0  0  0  0  0  0  0  0  0  0  0  0
    3.3514   -8.7653   16.2756 C   0  0  0  0  0  0  0  0  0  0  0  0
    7.5235   -6.6367   15.7705 C   0  0  0  0  0  0  0  0  0  0  0  0
    6.3182   -7.2125   15.6656 C   0  0  0  0  0  0  0  0  0  0  0  0
    9.4135   -6.1644   17.0682 O   0  0  0  0  0  0  0  0  0  0  0  0
   13.1859   -3.2068   13.4731 C   0  0  0  0  0  0  0  0  0  0  0  0
   11.1894   -4.3250   21.2047 C   0  0  0  0  0  0  0  0  0  0  0  0
    7.7233   -7.5511   17.9511 C   0  0  0  0  0  0  0  0  0  0  0  0
   12.0331   -3.0739   14.3308 C   0  0  0  0  0  0  0  0  0  0  0  0
   12.9391   -3.4622   12.2092 N   0  0  0  0  0  0  0  0  0  0  0  0
    0.5185   -6.9147   13.8351 C   0  0  0  0  0  0  0  0  0  0  0  0
  1 19  4  0
  1 22  4  0
  2 29  2  0
  3 15  1  0
  3 22  1  0
  4  6  4  0
  4 14  4  0
  5  7  4  0
  5 11  4  0
  5 25  1  0
  6  9  4  0
  7 24  4  0
  8 26  4  0
  8 28  1  0
  8 31  4  0
  9 30  4  0
  9 32  2  0
 10 14  4  0
 10 30  4  0
 11 17  4  0
 12 19  4  0
 12 20  4  0
 12 30  1  0
 13 33  1  0
 15 32  1  0
 16 18  4  0
 16 31  4  0
 17 34  4  0
 18 23  1  0
 18 27  4  0
 20 21  4  0
 21 22  4  0
 21 28  1  0
 23 25  1  0
 24 34  4  0
 26 27  4  0
 29 32  1  0
 29 33  1  0
M  END
$$$$

 Created by Python create_sdf_string function

 34 37  0  0  0  0  0  0  0  0999 V2000
   11.2149   -3.1111   17.7556 C   0  0  0  0  0  0  0  0  0  0  0  0
   14.2659   -3.1035   13.8560 O   0  0  0  0  0  0  0  0  0  0  0  0
   10.6257   -4.2331   15.7624 O   0  0  0  0  0  0  0  0  0  0  0  0
   11.7259   -4.4297   23.9006 C   0  0  0  0  0  0  0  0  0  0  0  0
    2.3741   -8.0842   15.4071 C   0  0  0  0  0  0  0  0  0  0  0  0
   10.9231   -3.4362   23.3868 N   0  0  0  0  0  0  0  0  0  0  0  0
    2.6883   -6.9477   14.7688 C   0  0  0  0  0  0  0  0  0  0  0  0
    8.1993   -6.7816   16.9443 C   0  0  0  0  0  0  0  0  0  0  0  0
   10.6892   -3.3489   22.0673 C   0  0  0  0  0  0  0  0  0  0  0  0
   11.9498   -5.3722   21.7214 C   0  0  0  0  0  0  0  0  0  0  0  0
    1.1442   -8.6292   15.2669 C   0  0  0  0  0  0  0  0  0  0  0  0
   10.9646   -4.2448   19.8173 C   0  0  0  0  0  0  0  0  0  0  0  0
   12.4313   -2.7002   11.3643 C   0  0  0  0  0  0  0  0  0  0  0  0
   12.2607   -5.4179   23.0642 C   0  0  0  0  0  0  0  0  0  0  0  0
   11.8566   -4.2115   15.1226 C   0  0  0  0  0  0  0  0  0  0  0  0
    6.5487   -8.1414   17.7820 C   0  0  0  0  0  0  0  0  0  0  0  0
    0.2246   -8.0496   14.4809 C   0  0  0  0  0  0  0  0  0  0  0  0
    5.8477   -7.9407   16.6800 C   0  0  0  0  0  0  0  0  0  0  0  0
   11.3117   -3.1127   19.1013 C   0  0  0  0  0  0  0  0  0  0  0  0
   10.3447   -5.2732   19.1654 C   0  0  0  0  0  0  0  0  0  0  0  0
   10.1065   -5.2345   17.8046 C   0  0  0  0  0  0  0  0  0  0  0  0
   10.6834   -4.1831   17.1262 C   0  0  0  0  0  0  0  0  0  0  0  0
    4.5632   -8.5182   16.5959 O   0  0  0  0  0  0  0  0  0  0  0  0
    1.7789   -6.3219   13.9658 C   0  0  0  0  0  0  0  0  0  0  0  0
    3.3392   -8.7596   16.2655 C   0  0  0  0  0  0  0  0  0  0  0  0
    7.5264   -6.6387   15.7738 C   0  0  0  0  0  0  0  0  0  0  0  0
    6.3154   -7.2122   15.6647 C   0  0  0  0  0  0  0  0  0  0  0  0
    9.4130   -6.1563   17.0716 O   0  0  0  0  0  0  0  0  0  0  0  0
   13.1666   -3.2202   13.4360 C   0  0  0  0  0  0  0  0  0  0  0  0
   11.2005   -4.3287   21.1996 C   0  0  0  0  0  0  0  0  0  0  0  0
    7.7338   -7.5473   17.9485 C   0  0  0  0  0  0  0  0  0  0  0  0
   12.0193   -3.0937   14.3043 C   0  0  0  0  0  0  0  0  0  0  0  0
   12.9231   -3.4586   12.1843 N   0  0  0  0  0  0  0  0  0  0  0  0
    0.5121   -6.8912   13.8174 C   0  0  0  0  0  0  0  0  0  0  0  0
  1 19  4  0
  1 22  4  0
  2 29  2  0
  3 15  1  0
  3 22  1  0
  4  6  4  0
  4 14  4  0
  5  7  4  0
  5 11  4  0
  5 25  1  0
  6  9  4  0
  7 24  4  0
  8 26  4  0
  8 28  1  0
  8 31  4  0
  9 30  4  0
 10 14  4  0
 10 30  4  0
 11 17  4  0
 12 19  4  0
 12 20  4  0
 12 30  1  0
 13 33  1  0
 15 32  1  0
 16 18  4  0
 16 31  4  0
 17 34  4  0
 18 23  1  0
 18 27  4  0
 20 21  4  0
 21 22  4  0
 21 28  1  0
 23 25  1  0
 24 34  4  0
 26 27  4  0
 29 32  1  0
 29 33  1  0
M  END
$$$$

 Created by Python create_sdf_string function

 34 37  0  0  0  0  0  0  0  0999 V2000
   11.2111   -3.1062   17.7577 C   0  0  0  0  0  0  0  0  0  0  0  0
   14.2656   -3.1073   13.8580 O   0  0  0  0  0  0  0  0  0  0  0  0
   10.6244   -4.2279   15.7583 O   0  0  0  0  0  0  0  0  0  0  0  0
   11.7289   -4.4308   23.9037 C   0  0  0  0  0  0  0  0  0  0  0  0
    2.3737   -8.0866   15.4076 C   0  0  0  0  0  0  0  0  0  0  0  0
   10.9272   -3.4379   23.3860 N   0  0  0  0  0  0  0  0  0  0  0  0
    2.6923   -6.9436   14.7705 C   0  0  0  0  0  0  0  0  0  0  0  0
    8.1917   -6.7861   16.9478 C   0  0  0  0  0  0  0  0  0  0  0  0
   10.6879   -3.3469   22.0740 C   0  0  0  0  0  0  0  0  0  0  0  0
   11.9433   -5.3734   21.7227 C   0  0  0  0  0  0  0  0  0  0  0  0
    1.1446   -8.6246   15.2677 C   0  0  0  0  0  0  0  0  0  0  0  0
   10.9617   -4.2473   19.8216 C   0  0  0  0  0  0  0  0  0  0  0  0
   12.4333   -2.7049   11.3670 C   0  0  0  0  0  0  0  0  0  0  0  0
   12.2626   -5.4124   23.0647 C   0  0  0  0  0  0  0  0  0  0  0  0
   11.8575   -4.2113   15.1261 C   0  0  0  0  0  0  0  0  0  0  0  0
    6.5471   -8.1448   17.7778 C   0  0  0  0  0  0  0  0  0  0  0  0
    0.2179   -8.0544   14.4782 C   0  0  0  0  0  0  0  0  0  0  0  0
    5.8525   -7.9415   16.6874 C   0  0  0  0  0  0  0  0  0  0  0  0
   11.3186   -3.1154   19.1086 C   0  0  0  0  0  0  0  0  0  0  0  0
   10.3424   -5.2762   19.1681 C   0  0  0  0  0  0  0  0  0  0  0  0
   10.1013   -5.2345   17.7988 C   0  0  0  0  0  0  0  0  0  0  0  0
   10.6842   -4.1827   17.1251 C   0  0  0  0  0  0  0  0  0  0  0  0
    4.5634   -8.5206   16.6020 O   0  0  0  0  0  0  0  0  0  0  0  0
    1.7768   -6.3204   13.9633 C   0  0  0  0  0  0  0  0  0  0  0  0
    3.3372   -8.7620   16.2668 C   0  0  0  0  0  0  0  0  0  0  0  0
    7.5341   -6.6409   15.7736 C   0  0  0  0  0  0  0  0  0  0  0  0
    6.3120   -7.2128   15.6602 C   0  0  0  0  0  0  0  0  0  0  0  0
    9.4112   -6.1556   17.0707 O   0  0  0  0  0  0  0  0  0  0  0  0
   13.1716   -3.2172   13.4352 C   0  0  0  0  0  0  0  0  0  0  0  0
   11.1994   -4.3340   21.2013 C   0  0  0  0  0  0  0  0  0  0  0  0
    7.7381   -7.5489   17.9458 C   0  0  0  0  0  0  0  0  0  0  0  0
   12.0178   -3.0958   14.2974 C   0  0  0  0  0  0  0  0  0  0  0  0
   12.9287   -3.4606   12.1855 N   0  0  0  0  0  0  0  0  0  0  0  0
    0.5110   -6.8967   13.8159 C   0  0  0  0  0  0  0  0  0  0  0  0
  1 19  4  0
  1 22  4  0
  2 29  2  0
  3 15  1  0
  3 22  1  0
  4  6  4  0
  4 14  4  0
  5  7  4  0
  5 11  4  0
  5 25  1  0
  6  9  4  0
  7 24  4  0
  8 26  4  0
  8 28  1  0
  8 31  4  0
  9 30  4  0
 10 14  4  0
 10 30  4  0
 11 17  4  0
 12 19  4  0
 12 20  4  0
 12 30  1  0
 13 33  1  0
 15 32  1  0
 16 18  4  0
 16 31  4  0
 17 34  4  0
 18 23  1  0
 18 27  4  0
 20 21  4  0
 21 22  4  0
 21 28  1  0
 23 25  1  0
 24 34  4  0
 26 27  4  0
 29 32  1  0
 29 33  1  0
M  END
$$$$

 Created by Python create_sdf_string function

 34 37  0  0  0  0  0  0  0  0999 V2000
   11.2225   -3.1119   17.7643 C   0  0  0  0  0  0  0  0  0  0  0  0
   14.2523   -3.1078   13.8255 O   0  0  0  0  0  0  0  0  0  0  0  0
   10.6450   -4.2349   15.7696 O   0  0  0  0  0  0  0  0  0  0  0  0
   11.7304   -4.4492   23.9044 C   0  0  0  0  0  0  0  0  0  0  0  0
    2.3639   -8.0678   15.3913 C   0  0  0  0  0  0  0  0  0  0  0  0
   10.9386   -3.4463   23.3943 N   0  0  0  0  0  0  0  0  0  0  0  0
    2.6843   -6.9350   14.7533 C   0  0  0  0  0  0  0  0  0  0  0  0
    8.2003   -6.7824   16.9451 C   0  0  0  0  0  0  0  0  0  0  0  0
   10.6990   -3.3481   22.0767 C   0  0  0  0  0  0  0  0  0  0  0  0
   11.9460   -5.3867   21.7201 C   0  0  0  0  0  0  0  0  0  0  0  0
    1.1334   -8.6018   15.2439 C   0  0  0  0  0  0  0  0  0  0  0  0
   10.9638   -4.2444   19.8232 C   0  0  0  0  0  0  0  0  0  0  0  0
   12.4367   -2.6968   11.3312 C   0  0  0  0  0  0  0  0  0  0  0  0
   12.2590   -5.4332   23.0623 C   0  0  0  0  0  0  0  0  0  0  0  0
   11.8793   -4.1976   15.1457 C   0  0  0  0  0  0  0  0  0  0  0  0
    6.5510   -8.1398   17.7816 C   0  0  0  0  0  0  0  0  0  0  0  0
    0.2125   -8.0308   14.4611 C   0  0  0  0  0  0  0  0  0  0  0  0
    5.8469   -7.9385   16.6812 C   0  0  0  0  0  0  0  0  0  0  0  0
   11.3125   -3.1121   19.1105 C   0  0  0  0  0  0  0  0  0  0  0  0
   10.3407   -5.2714   19.1705 C   0  0  0  0  0  0  0  0  0  0  0  0
   10.1096   -5.2358   17.8066 C   0  0  0  0  0  0  0  0  0  0  0  0
   10.6945   -4.1841   17.1329 C   0  0  0  0  0  0  0  0  0  0  0  0
    4.5586   -8.5096   16.5958 O   0  0  0  0  0  0  0  0  0  0  0  0
    1.7759   -6.3009   13.9493 C   0  0  0  0  0  0  0  0  0  0  0  0
    3.3287   -8.7510   16.2552 C   0  0  0  0  0  0  0  0  0  0  0  0
    7.5312   -6.6433   15.7750 C   0  0  0  0  0  0  0  0  0  0  0  0
    6.3121   -7.2130   15.6629 C   0  0  0  0  0  0  0  0  0  0  0  0
    9.4135   -6.1501   17.0739 O   0  0  0  0  0  0  0  0  0  0  0  0
   13.1519   -3.2312   13.4067 C   0  0  0  0  0  0  0  0  0  0  0  0
   11.2034   -4.3338   21.2045 C   0  0  0  0  0  0  0  0  0  0  0  0
    7.7373   -7.5499   17.9478 C   0  0  0  0  0  0  0  0  0  0  0  0
   12.0067   -3.1227   14.2750 C   0  0  0  0  0  0  0  0  0  0  0  0
   12.9090   -3.4610   12.1531 N   0  0  0  0  0  0  0  0  0  0  0  0
    0.5056   -6.8702   13.7976 C   0  0  0  0  0  0  0  0  0  0  0  0
  1 19  4  0
  1 22  4  0
  2 29  2  0
  3 15  1  0
  3 22  1  0
  4  6  4  0
  4 14  4  0
  5  7  4  0
  5 11  4  0
  5 25  1  0
  6  9  4  0
  7 24  4  0
  8 26  4  0
  8 28  1  0
  8 31  4  0
  9 30  4  0
 10 14  4  0
 10 30  4  0
 11 17  4  0
 12 19  4  0
 12 20  4  0
 12 30  1  0
 13 33  1  0
 15 32  1  0
 16 18  4  0
 16 31  4  0
 17 34  4  0
 18 23  1  0
 18 27  4  0
 20 21  4  0
 21 22  4  0
 21 28  1  0
 23 25  1  0
 24 34  4  0
 26 27  4  0
 29 32  1  0
 29 33  1  0
M  END
$$$$

 Created by Python create_sdf_string function

 34 37  0  0  0  0  0  0  0  0999 V2000
   11.2225   -3.1119   17.7643 C   0  0  0  0  0  0  0  0  0  0  0  0
   14.2523   -3.1078   13.8255 O   0  0  0  0  0  0  0  0  0  0  0  0
   10.6450   -4.2349   15.7696 O   0  0  0  0  0  0  0  0  0  0  0  0
   11.7304   -4.4492   23.9044 C   0  0  0  0  0  0  0  0  0  0  0  0
    2.3639   -8.0678   15.3913 C   0  0  0  0  0  0  0  0  0  0  0  0
   10.9386   -3.4463   23.3943 N   0  0  0  0  0  0  0  0  0  0  0  0
    2.6843   -6.9350   14.7533 C   0  0  0  0  0  0  0  0  0  0  0  0
    8.2003   -6.7824   16.9451 C   0  0  0  0  0  0  0  0  0  0  0  0
   10.6990   -3.3481   22.0767 C   0  0  0  0  0  0  0  0  0  0  0  0
   11.9460   -5.3867   21.7201 C   0  0  0  0  0  0  0  0  0  0  0  0
    1.1334   -8.6018   15.2439 C   0  0  0  0  0  0  0  0  0  0  0  0
   10.9638   -4.2444   19.8232 C   0  0  0  0  0  0  0  0  0  0  0  0
   12.4367   -2.6968   11.3312 C   0  0  0  0  0  0  0  0  0  0  0  0
   12.2590   -5.4332   23.0623 C   0  0  0  0  0  0  0  0  0  0  0  0
   11.8793   -4.1976   15.1457 C   0  0  0  0  0  0  0  0  0  0  0  0
    6.5510   -8.1398   17.7816 C   0  0  0  0  0  0  0  0  0  0  0  0
    0.2125   -8.0308   14.4611 C   0  0  0  0  0  0  0  0  0  0  0  0
    5.8469   -7.9385   16.6812 C   0  0  0  0  0  0  0  0  0  0  0  0
   11.3125   -3.1121   19.1105 C   0  0  0  0  0  0  0  0  0  0  0  0
   10.3407   -5.2714   19.1705 C   0  0  0  0  0  0  0  0  0  0  0  0
   10.1096   -5.2358   17.8066 C   0  0  0  0  0  0  0  0  0  0  0  0
   10.6945   -4.1841   17.1329 C   0  0  0  0  0  0  0  0  0  0  0  0
    4.5586   -8.5096   16.5958 O   0  0  0  0  0  0  0  0  0  0  0  0
    1.7759   -6.3009   13.9493 C   0  0  0  0  0  0  0  0  0  0  0  0
    3.3287   -8.7510   16.2552 C   0  0  0  0  0  0  0  0  0  0  0  0
    7.5312   -6.6433   15.7750 C   0  0  0  0  0  0  0  0  0  0  0  0
    6.3121   -7.2130   15.6629 C   0  0  0  0  0  0  0  0  0  0  0  0
    9.4135   -6.1501   17.0739 O   0  0  0  0  0  0  0  0  0  0  0  0
   13.1519   -3.2312   13.4067 C   0  0  0  0  0  0  0  0  0  0  0  0
   11.2034   -4.3338   21.2045 C   0  0  0  0  0  0  0  0  0  0  0  0
    7.7373   -7.5499   17.9478 C   0  0  0  0  0  0  0  0  0  0  0  0
   12.0067   -3.1227   14.2750 C   0  0  0  0  0  0  0  0  0  0  0  0
   12.9090   -3.4610   12.1531 N   0  0  0  0  0  0  0  0  0  0  0  0
    0.5056   -6.8702   13.7976 C   0  0  0  0  0  0  0  0  0  0  0  0
  1 19  4  0
  1 22  4  0
  2 29  2  0
  3 15  1  0
  3 22  1  0
  4  6  4  0
  4 14  4  0
  5  7  4  0
  5 11  4  0
  5 25  1  0
  6  9  4  0
  7 24  4  0
  8 26  4  0
  8 28  1  0
  8 31  4  0
  9 30  4  0
 10 14  4  0
 10 30  4  0
 11 17  4  0
 12 19  4  0
 12 20  4  0
 12 30  1  0
 13 33  1  0
 15 32  1  0
 16 18  4  0
 16 31  4  0
 17 34  4  0
 18 23  1  0
 18 27  4  0
 20 21  4  0
 21 22  4  0
 21 28  1  0
 23 25  1  0
 24 34  4  0
 26 27  4  0
 29 32  1  0
 29 33  1  0
M  END
$$$$

 Created by Python create_sdf_string function

 34 64  0  0  0  0  0  0  0  0999 V2000
    6.2350   -6.9531   16.4320 F   0  0  0  0  0  0  0  0  0  0  0  0
    6.9231   -8.4027   15.5964 C   0  0  0  0  0  0  0  0  0  0  0  0
   11.3587   -4.4572   24.0782 F   0  0  0  0  0  0  0  0  0  0  0  0
   10.6346   -4.1784   23.3251 C   0  0  0  0  0  0  0  0  0  0  0  0
    7.7783   -6.8274   17.3137 C   0  0  0  0  0  0  0  0  0  0  0  0
   10.4787   -3.7404   22.0976 F   0  0  0  0  0  0  0  0  0  0  0  0
   12.1992   -5.4112   21.1282 C   0  0  0  0  0  0  0  0  0  0  0  0
    0.8185   -7.8438   15.7917 C   0  0  0  0  0  0  0  0  0  0  0  0
   10.7254   -4.3026   19.9757 C   0  0  0  0  0  0  0  0  0  0  0  0
    6.2010   -8.5671   18.1364 S   0  0  0  0  0  0  0  0  0  0  0  0
    0.0992   -8.1000   15.5263 C   0  0  0  0  0  0  0  0  0  0  0  0
   11.6251   -2.9408   19.1807 N   0  0  0  0  0  0  0  0  0  0  0  0
    9.8275   -4.9352   18.2789 S   0  0  0  0  0  0  0  0  0  0  0  0
    8.2711   -9.1414   16.6333 C   0  0  0  0  0  0  0  0  0  0  0  0
    1.9209   -6.4623   14.0109 C   0  0  0  0  0  0  0  0  0  0  0  0
    8.9540   -7.3067   16.8215 F   0  0  0  0  0  0  0  0  0  0  0  0
    7.2016   -6.9156   15.6066 C   0  0  0  0  0  0  0  0  0  0  0  0
    9.3101   -5.6976   17.2141 Br  0  0  0  0  0  0  0  0  0  0  0  0
   10.5396   -4.0574   21.4812 C   0  0  0  0  0  0  0  0  0  0  0  0
    7.3709   -6.5618   17.6362 O   0  0  0  0  0  0  0  0  0  0  0  0
    8.9310   -8.3863   17.8218 He  0  0  0  0  0  0  0  0  0  0  0  0
    8.7835   -9.4823   18.4799 He  0  0  0  0  0  0  0  0  0  0  0  0
    2.8040   -6.3910   14.6317 He  0  0  0  0  0  0  0  0  0  0  0  0
    7.8610   -6.7764   16.5998 He  0  0  0  0  0  0  0  0  0  0  0  0
   12.1339   -4.8779   22.7793 He  0  0  0  0  0  0  0  0  0  0  0  0
    8.6339   -8.4401   17.5816 He  0  0  0  0  0  0  0  0  0  0  0  0
    7.1390   -7.9334   18.8087 He  0  0  0  0  0  0  0  0  0  0  0  0
   10.1210   -4.6096   19.4626 He  0  0  0  0  0  0  0  0  0  0  0  0
    7.1002   -7.9166   17.5405 He  0  0  0  0  0  0  0  0  0  0  0  0
    8.5695   -8.8499   17.4922 He  0  0  0  0  0  0  0  0  0  0  0  0
    7.2241   -9.3256   16.6585 He  0  0  0  0  0  0  0  0  0  0  0  0
    8.8880   -8.1929   16.9429 He  0  0  0  0  0  0  0  0  0  0  0  0
    6.9379   -7.4577   17.0774 He  0  0  0  0  0  0  0  0  0  0  0  0
    1.1892   -6.7753   14.0417 He  0  0  0  0  0  0  0  0  0  0  0  0
  1  4  1  0
  1  6  1  0
  1  9  2  0
  1 12  1  0
  1 17  1  0
  1 18  2  0
  1 19  1  0
  1 20  1  0
  2  6  4  0
  2  9  2  0
  2 12  3  0
  2 13  2  0
  2 14  2  0
  2 20  4  0
  3  4  4  0
  3  5  2  0
  3 10  1  0
  3 19  1  0
  4  6  4  0
  4 10  4  0
  4 13  2  0
  4 14  2  0
  5  8  1  0
  5 10  4  0
  5 13  3  0
  5 16  2  0
  5 17  4  0
  5 18  1  0
  5 19  1  0
  5 20  4  0
  6 10  2  0
  7 10  2  0
  7 13  3  0
  7 18  1  0
  7 19  4  0
  8  9  3  0
  8 11  4  0
  8 14  1  0
  8 16  3  0
  8 19  2  0
  8 20  3  0
  9 10  2  0
  9 12  4  0
  9 14  4  0
  9 16  1  0
 10 12  2  0
 10 14  2  0
 10 15  1  0
 10 16  1  0
 10 17  3  0
 10 18  1  0
 11 13  4  0
 11 20  3  0
 12 14  3  0
 12 16  4  0
 13 14  1  0
 13 15  4  0
 13 18  2  0
 14 15  1  0
 14 16  3  0
 14 20  3  0
 15 16  3  0
 16 19  1  0
 17 20  2  0
M  END
$$$$

 Created by Python create_sdf_string function

 34 19  0  0  0  0  0  0  0  0999 V2000
    4.5133   -7.1855   15.5981 C   0  0  0  0  0  0  0  0  0  0  0  0
    9.2721   -7.8405   18.1303 F   0  0  0  0  0  0  0  0  0  0  0  0
    6.1356   -8.3064   15.6318 F   0  0  0  0  0  0  0  0  0  0  0  0
   11.4581   -4.6086   23.8669 C   0  0  0  0  0  0  0  0  0  0  0  0
    8.9746   -8.5389   18.4109 F   0  0  0  0  0  0  0  0  0  0  0  0
   10.5388   -3.7778   23.5147 C   0  0  0  0  0  0  0  0  0  0  0  0
    3.1176   -6.9410   15.0988 C   0  0  0  0  0  0  0  0  0  0  0  0
    8.1149   -6.1648   17.2965 C   0  0  0  0  0  0  0  0  0  0  0  0
   10.2723   -3.5178   22.1728 C   0  0  0  0  0  0  0  0  0  0  0  0
   11.9265   -5.0354   21.5358 C   0  0  0  0  0  0  0  0  0  0  0  0
    1.8661   -8.0305   15.8765 C   0  0  0  0  0  0  0  0  0  0  0  0
   10.6500   -3.9650   19.8293 C   0  0  0  0  0  0  0  0  0  0  0  0
    7.8061   -6.2698   16.2540 F   0  0  0  0  0  0  0  0  0  0  0  0
   12.1876   -5.2499   22.9231 C   0  0  0  0  0  0  0  0  0  0  0  0
    5.2845   -8.4432   17.4515 F   0  0  0  0  0  0  0  0  0  0  0  0
    8.8914   -8.0132   17.7700 F   0  0  0  0  0  0  0  0  0  0  0  0
    0.8672   -7.8699   15.2662 C   0  0  0  0  0  0  0  0  0  0  0  0
    6.9185   -7.9805   18.4339 F   0  0  0  0  0  0  0  0  0  0  0  0
   11.1286   -3.1594   18.9628 O   0  0  0  0  0  0  0  0  0  0  0  0
   10.1784   -4.6089   19.1815 C   0  0  0  0  0  0  0  0  0  0  0  0
    9.8702   -4.9130   18.2534 C   0  0  0  0  0  0  0  0  0  0  0  0
    6.2974   -7.8401   17.3831 F   0  0  0  0  0  0  0  0  0  0  0  0
    7.9096   -8.6937   16.0177 F   0  0  0  0  0  0  0  0  0  0  0  0
    2.2078   -6.5298   14.2638 C   0  0  0  0  0  0  0  0  0  0  0  0
    8.8889   -6.9915   16.8296 F   0  0  0  0  0  0  0  0  0  0  0  0
    6.4513   -6.5620   15.3064 F   0  0  0  0  0  0  0  0  0  0  0  0
    8.4454   -8.5438   17.3115 F   0  0  0  0  0  0  0  0  0  0  0  0
    9.3266   -5.1587   17.2338 C   0  0  0  0  0  0  0  0  0  0  0  0
    6.8591   -9.2059   16.4311 F   0  0  0  0  0  0  0  0  0  0  0  0
   10.9848   -4.1976   21.2379 C   0  0  0  0  0  0  0  0  0  0  0  0
    7.1676   -6.0787   17.9671 F   0  0  0  0  0  0  0  0  0  0  0  0
    8.7967   -7.9972   16.8319 F   0  0  0  0  0  0  0  0  0  0  0  0
    5.7193   -7.4573   16.4566 C   0  0  0  0  0  0  0  0  0  0  0  0
    1.2326   -7.0907   14.3759 C   0  0  0  0  0  0  0  0  0  0  0  0
  1  7  4  0
  2 16  1  0
  4  6  4  0
  4 14  4  0
  6  9  4  0
  7 24  4  0
  8 28  1  0
  8 31  1  0
  9 30  4  0
 10 14  4  0
 10 30  4  0
 11 17  4  0
 12 19  4  0
 12 20  1  0
 12 30  1  0
 17 34  4  0
 20 21  1  0
 21 28  1  0
 24 34  4  0
M  END
$$$$

 Created by Python create_sdf_string function

 34 76  0  0  0  0  0  0  0  0999 V2000
    5.8124   -7.9188   15.1629 C   0  0  0  0  0  0  0  0  0  0  0  0
   11.3276   -4.5308   24.1418 C   0  0  0  0  0  0  0  0  0  0  0  0
   10.3862   -3.8369   23.3298 C   0  0  0  0  0  0  0  0  0  0  0  0
    8.2641   -6.2940   16.7408 C   0  0  0  0  0  0  0  0  0  0  0  0
    9.9642   -2.7284   22.3469 C   0  0  0  0  0  0  0  0  0  0  0  0
   11.4141   -4.8812   20.7910 Cl  0  0  0  0  0  0  0  0  0  0  0  0
   10.9268   -4.2568   20.4154 C   0  0  0  0  0  0  0  0  0  0  0  0
    6.2135   -4.7738   15.6978 F   0  0  0  0  0  0  0  0  0  0  0  0
   12.5722   -5.2239   23.2270 C   0  0  0  0  0  0  0  0  0  0  0  0
   11.3414   -2.9621   19.4230 O   0  0  0  0  0  0  0  0  0  0  0  0
   10.6595   -5.3883   19.9069 C   0  0  0  0  0  0  0  0  0  0  0  0
    9.8530   -5.1358   17.8124 C   0  0  0  0  0  0  0  0  0  0  0  0
    6.8292   -5.0904   16.2460 F   0  0  0  0  0  0  0  0  0  0  0  0
    9.4447   -6.0159   17.5626 F   0  0  0  0  0  0  0  0  0  0  0  0
    6.8479   -6.6013   15.4812 I   0  0  0  0  0  0  0  0  0  0  0  0
    8.3575   -7.3401   18.7818 O   0  0  0  0  0  0  0  0  0  0  0  0
    9.5141   -4.7061   17.1404 C   0  0  0  0  0  0  0  0  0  0  0  0
    7.0617   -8.7071   15.6275 O   0  0  0  0  0  0  0  0  0  0  0  0
   10.2631   -4.8768   20.8245 Cl  0  0  0  0  0  0  0  0  0  0  0  0
    7.3186   -4.8576   18.3521 F   0  0  0  0  0  0  0  0  0  0  0  0
    0.3224   -7.2191   14.7882 C   0  0  0  0  0  0  0  0  0  0  0  0
   10.4270   -8.4901   18.3018 He  0  0  0  0  0  0  0  0  0  0  0  0
    7.1324   -7.9123   16.6015 He  0  0  0  0  0  0  0  0  0  0  0  0
    9.9337   -8.6275   18.1137 He  0  0  0  0  0  0  0  0  0  0  0  0
    2.9065   -6.6141   15.7581 He  0  0  0  0  0  0  0  0  0  0  0  0
    1.7076   -7.0997   16.3948 He  0  0  0  0  0  0  0  0  0  0  0  0
    4.6454   -9.4648   18.1270 He  0  0  0  0  0  0  0  0  0  0  0  0
    9.5380   -6.9291   17.9741 He  0  0  0  0  0  0  0  0  0  0  0  0
    1.0025   -7.6672   15.5349 He  0  0  0  0  0  0  0  0  0  0  0  0
    7.6413   -9.3403   17.2243 He  0  0  0  0  0  0  0  0  0  0  0  0
    8.6920   -8.2982   15.0228 He  0  0  0  0  0  0  0  0  0  0  0  0
    1.5634   -6.2841   14.1753 He  0  0  0  0  0  0  0  0  0  0  0  0
    9.2953   -8.1143   15.2103 He  0  0  0  0  0  0  0  0  0  0  0  0
    4.8326   -8.9321   16.3421 He  0  0  0  0  0  0  0  0  0  0  0  0
  1  6  3  0
  1  8  2  0
  1 10  3  0
  1 14  1  0
  1 17  2  0
  1 21  3  0
  2  3  4  0
  2  9  4  0
  2 11  4  0
  2 13  2  0
  2 14  2  0
  2 16  1  0
  2 18  3  0
  3  5  4  0
  3  8  3  0
  3 10  2  0
  3 12  2  0
  3 14  2  0
  3 16  1  0
  3 18  2  0
  4 13  4  0
  4 15  3  0
  4 16  3  0
  4 17  1  0
  4 18  2  0
  4 20  1  0
  5  8  3  0
  5 10  3  0
  5 14  2  0
  5 16  4  0
  6  7  3  0
  6  9  2  0
  6 15  1  0
  6 16  4  0
  6 18  4  0
  6 19  4  0
  6 20  3  0
  7  8  4  0
  7 10  4  0
  7 11  3  0
  7 13  1  0
  7 14  3  0
  7 19  4  0
  7 21  1  0
  8 10  4  0
  8 12  1  0
  8 14  1  0
  8 17  4  0
  8 18  3  0
  8 19  3  0
  8 21  3  0
  9 13  4  0
  9 14  2  0
  9 18  3  0
 10 14  1  0
 10 16  4  0
 10 18  4  0
 11 12  1  0
 12 16  2  0
 12 17  3  0
 13 14  4  0
 13 18  3  0
 13 20  1  0
 14 17  2  0
 14 19  4  0
 14 20  3  0
 15 16  2  0
 15 18  4  0
 16 17  1  0
 16 19  3  0
 16 21  3  0
 17 18  4  0
 18 19  3  0
 18 20  2  0
 18 21  2  0
 19 21  4  0
M  END
$$$$

 Created by Python create_sdf_string function

 34 19  0  0  0  0  0  0  0  0999 V2000
    4.9759   -7.6872   15.8610 C   0  0  0  0  0  0  0  0  0  0  0  0
    9.7103   -7.9380   18.3413 F   0  0  0  0  0  0  0  0  0  0  0  0
    6.7012   -8.1085   16.7370 C   0  0  0  0  0  0  0  0  0  0  0  0
   11.3818   -4.4609   23.9208 C   0  0  0  0  0  0  0  0  0  0  0  0
    9.4570   -8.0621   18.1181 F   0  0  0  0  0  0  0  0  0  0  0  0
   10.5046   -3.5449   23.5701 C   0  0  0  0  0  0  0  0  0  0  0  0
    3.0466   -6.9689   15.2280 C   0  0  0  0  0  0  0  0  0  0  0  0
    8.3414   -5.9599   16.8365 C   0  0  0  0  0  0  0  0  0  0  0  0
   10.2605   -3.2593   22.2995 C   0  0  0  0  0  0  0  0  0  0  0  0
   11.7520   -5.1706   21.7553 C   0  0  0  0  0  0  0  0  0  0  0  0
    1.9014   -7.8368   16.3571 C   0  0  0  0  0  0  0  0  0  0  0  0
   10.7645   -4.0041   20.0099 C   0  0  0  0  0  0  0  0  0  0  0  0
    6.4558   -5.9918   15.4404 F   0  0  0  0  0  0  0  0  0  0  0  0
   12.0408   -5.2367   23.1063 C   0  0  0  0  0  0  0  0  0  0  0  0
    4.7070   -8.6879   17.1889 C   0  0  0  0  0  0  0  0  0  0  0  0
    9.3821   -6.7059   17.9900 C   0  0  0  0  0  0  0  0  0  0  0  0
    0.9277   -7.6504   15.7768 C   0  0  0  0  0  0  0  0  0  0  0  0
    7.1889   -8.8066   17.2687 F   0  0  0  0  0  0  0  0  0  0  0  0
   11.0415   -3.0545   19.2810 O   0  0  0  0  0  0  0  0  0  0  0  0
   10.5218   -5.3894   19.2601 C   0  0  0  0  0  0  0  0  0  0  0  0
    9.9834   -5.0227   18.0865 C   0  0  0  0  0  0  0  0  0  0  0  0
    7.5204   -5.6482   15.8932 F   0  0  0  0  0  0  0  0  0  0  0  0
    7.9979   -8.3126   15.5405 F   0  0  0  0  0  0  0  0  0  0  0  0
    2.0341   -6.6822   14.4163 C   0  0  0  0  0  0  0  0  0  0  0  0
    9.3167   -6.0394   17.6602 F   0  0  0  0  0  0  0  0  0  0  0  0
    6.7419   -6.5447   15.6033 C   0  0  0  0  0  0  0  0  0  0  0  0
    8.3394   -7.3792   18.5213 F   0  0  0  0  0  0  0  0  0  0  0  0
    9.3626   -4.6947   17.0584 C   0  0  0  0  0  0  0  0  0  0  0  0
    6.6666   -8.4559   16.0179 C   0  0  0  0  0  0  0  0  0  0  0  0
   10.9203   -4.2176   21.2901 C   0  0  0  0  0  0  0  0  0  0  0  0
    7.6029   -5.1516   18.3537 F   0  0  0  0  0  0  0  0  0  0  0  0
    8.6987   -8.3079   15.7692 F   0  0  0  0  0  0  0  0  0  0  0  0
    4.2518   -8.0953   16.3991 C   0  0  0  0  0  0  0  0  0  0  0  0
    0.6711   -7.0982   14.7355 C   0  0  0  0  0  0  0  0  0  0  0  0
  2  5  1  0
  3 18  1  0
  4  6  4  0
  4 14  4  0
  6  9  4  0
  7 24  4  0
  8 22  1  0
  8 28  1  0
  9 30  4  0
 10 14  4  0
 10 30  4  0
 11 17  4  0
 12 19  2  0
 12 20  1  0
 12 30  1  0
 17 34  4  0
 20 21  1  0
 21 28  1  0
 24 34  4  0
M  END
$$$$

 Created by Python create_sdf_string function

 34 94  0  0  0  0  0  0  0  0999 V2000
    3.5856   -7.4744   16.3686 O   0  0  0  0  0  0  0  0  0  0  0  0
   10.6781   -7.7512   18.5451 S   0  0  0  0  0  0  0  0  0  0  0  0
   11.6216   -4.6800   23.9641 F   0  0  0  0  0  0  0  0  0  0  0  0
   10.9407   -3.6282   24.3750 S   0  0  0  0  0  0  0  0  0  0  0  0
    3.5931   -7.3049   15.1444 C   0  0  0  0  0  0  0  0  0  0  0  0
    8.2385   -6.6276   16.6015 C   0  0  0  0  0  0  0  0  0  0  0  0
   11.3849   -4.8528   21.2539 C   0  0  0  0  0  0  0  0  0  0  0  0
    2.2273   -8.1103   15.7924 C   0  0  0  0  0  0  0  0  0  0  0  0
    7.7811   -7.7965   15.4189 O   0  0  0  0  0  0  0  0  0  0  0  0
   12.4838   -4.3606   23.0270 C   0  0  0  0  0  0  0  0  0  0  0  0
    0.7736   -7.6488   16.0710 C   0  0  0  0  0  0  0  0  0  0  0  0
    9.6551   -5.4557   19.5394 P   0  0  0  0  0  0  0  0  0  0  0  0
    9.9402   -5.4573   18.5166 C   0  0  0  0  0  0  0  0  0  0  0  0
    7.4400   -7.0852   17.1223 C   0  0  0  0  0  0  0  0  0  0  0  0
    0.5346   -6.8648   14.6429 C   0  0  0  0  0  0  0  0  0  0  0  0
    8.5557   -7.1986   18.3229 P   0  0  0  0  0  0  0  0  0  0  0  0
    6.8625   -6.5960   15.7155 O   0  0  0  0  0  0  0  0  0  0  0  0
    9.1439   -4.2770   16.5406 C   0  0  0  0  0  0  0  0  0  0  0  0
    5.5855   -9.0233   15.8359 I   0  0  0  0  0  0  0  0  0  0  0  0
   10.8517   -3.7239   20.9524 N   0  0  0  0  0  0  0  0  0  0  0  0
    8.2869   -5.3593   18.0561 F   0  0  0  0  0  0  0  0  0  0  0  0
    7.9817   -8.4938   15.6243 O   0  0  0  0  0  0  0  0  0  0  0  0
    3.4194   -8.4243   17.0689 O   0  0  0  0  0  0  0  0  0  0  0  0
    1.3432   -7.7026   15.3519 C   0  0  0  0  0  0  0  0  0  0  0  0
    6.6161   -8.4773   16.4342 He  0  0  0  0  0  0  0  0  0  0  0  0
   10.5851   -7.0979   18.1307 He  0  0  0  0  0  0  0  0  0  0  0  0
    9.9090   -3.4052   23.1817 He  0  0  0  0  0  0  0  0  0  0  0  0
   10.2668   -3.6367   19.6537 He  0  0  0  0  0  0  0  0  0  0  0  0
    3.6180   -9.7025   17.1657 He  0  0  0  0  0  0  0  0  0  0  0  0
    8.9290   -5.3744   18.1020 He  0  0  0  0  0  0  0  0  0  0  0  0
    6.8695   -9.4993   16.9689 He  0  0  0  0  0  0  0  0  0  0  0  0
   11.9105   -3.0155   19.0488 He  0  0  0  0  0  0  0  0  0  0  0  0
    5.8615   -6.8838   16.0708 He  0  0  0  0  0  0  0  0  0  0  0  0
    6.7082   -7.1056   18.2339 He  0  0  0  0  0  0  0  0  0  0  0  0
  1  3  3  0
  1  5  2  0
  1  6  4  0
  1  8  4  0
  1 11  4  0
  1 17  2  0
  1 19  3  0
  1 20  3  0
  1 23  1  0
  2  4  2  0
  2  6  2  0
  2  7  1  0
  2 11  2  0
  2 12  2  0
  2 13  4  0
  2 15  3  0
  2 16  3  0
  2 18  3  0
  2 20  3  0
  3  5  3  0
  3  6  4  0
  3  7  2  0
  3  9  1  0
  3 10  4  0
  3 13  3  0
  3 15  1  0
  3 16  4  0
  3 18  3  0
  3 21  3  0
  3 23  2  0
  4  7  2  0
  4 13  1  0
  4 19  3  0
  4 21  4  0
  4 22  4  0
  5  7  2  0
  5 11  1  0
  5 15  3  0
  5 16  3  0
  5 21  4  0
  5 22  1  0
  5 24  1  0
  6  8  3  0
  6  9  4  0
  6 14  2  0
  6 18  1  0
  6 20  1  0
  6 23  1  0
  7  9  2  0
  7 10  4  0
  7 14  3  0
  7 19  1  0
  7 23  2  0
  8 11  4  0
  8 14  1  0
  8 16  4  0
  8 18  3  0
  8 23  2  0
  9 10  2  0
  9 14  3  0
  9 19  4  0
  9 20  4  0
  9 24  1  0
 10 20  1  0
 11 14  3  0
 11 24  4  0
 12 24  4  0
 13 14  1  0
 13 15  4  0
 13 16  4  0
 13 18  1  0
 13 22  4  0
 13 23  2  0
 14 17  4  0
 14 21  3  0
 15 16  1  0
 15 19  4  0
 15 20  3  0
 15 22  2  0
 15 24  4  0
 16 17  3  0
 16 18  4  0
 16 19  1  0
 16 21  3  0
 16 23  2  0
 17 18  4  0
 17 19  2  0
 17 20  2  0
 17 23  3  0
 18 22  4  0
 18 23  4  0
 19 22  2  0
 21 23  2  0
 23 24  3  0
M  END
$$$$

 Created by Python create_sdf_string function

 34 20  0  0  0  0  0  0  0  0999 V2000
    3.2308   -7.8842   15.9981 C   0  0  0  0  0  0  0  0  0  0  0  0
   10.3077   -7.4751   18.5484 C   0  0  0  0  0  0  0  0  0  0  0  0
    6.4521   -8.5128   16.6308 C   0  0  0  0  0  0  0  0  0  0  0  0
   11.6739   -4.4949   23.8874 C   0  0  0  0  0  0  0  0  0  0  0  0
   10.3804   -6.9826   18.5555 C   0  0  0  0  0  0  0  0  0  0  0  0
   10.7497   -3.5627   23.9830 C   0  0  0  0  0  0  0  0  0  0  0  0
    3.0570   -7.0361   15.2277 C   0  0  0  0  0  0  0  0  0  0  0  0
    8.3747   -6.2022   16.5168 C   0  0  0  0  0  0  0  0  0  0  0  0
   10.3773   -3.1370   22.7655 C   0  0  0  0  0  0  0  0  0  0  0  0
   11.7085   -4.6916   21.8001 C   0  0  0  0  0  0  0  0  0  0  0  0
    2.1404   -8.4235   16.3443 C   0  0  0  0  0  0  0  0  0  0  0  0
   10.5615   -3.7234   19.8841 C   0  0  0  0  0  0  0  0  0  0  0  0
    7.8192   -8.0715   15.6419 C   0  0  0  0  0  0  0  0  0  0  0  0
   12.1069   -4.9137   22.8941 C   0  0  0  0  0  0  0  0  0  0  0  0
    3.9837   -9.4290   17.2210 C   0  0  0  0  0  0  0  0  0  0  0  0
    9.3787   -5.2114   17.8670 C   0  0  0  0  0  0  0  0  0  0  0  0
    0.9195   -8.0458   16.0120 C   0  0  0  0  0  0  0  0  0  0  0  0
    6.6934   -9.2404   16.8031 C   0  0  0  0  0  0  0  0  0  0  0  0
   11.0057   -3.0637   19.3935 O   0  0  0  0  0  0  0  0  0  0  0  0
   10.3533   -4.9796   19.3752 C   0  0  0  0  0  0  0  0  0  0  0  0
    9.9727   -5.3772   18.3803 C   0  0  0  0  0  0  0  0  0  0  0  0
    7.4485   -7.0400   16.8723 C   0  0  0  0  0  0  0  0  0  0  0  0
    5.6294   -7.2488   16.0045 C   0  0  0  0  0  0  0  0  0  0  0  0
    1.1915   -7.0621   14.7091 C   0  0  0  0  0  0  0  0  0  0  0  0
    8.6050   -7.4375   18.0922 C   0  0  0  0  0  0  0  0  0  0  0  0
    6.5409   -6.1067   15.5562 O   0  0  0  0  0  0  0  0  0  0  0  0
    6.8303   -7.3913   18.0490 C   0  0  0  0  0  0  0  0  0  0  0  0
    9.3789   -4.4428   16.4761 C   0  0  0  0  0  0  0  0  0  0  0  0
    5.3079   -8.9829   16.2825 C   0  0  0  0  0  0  0  0  0  0  0  0
   10.8235   -3.8270   21.5485 C   0  0  0  0  0  0  0  0  0  0  0  0
    8.5317   -5.4853   17.9371 C   0  0  0  0  0  0  0  0  0  0  0  0
    8.1144   -8.4865   15.5609 C   0  0  0  0  0  0  0  0  0  0  0  0
    3.7798   -8.6053   16.7903 C   0  0  0  0  0  0  0  0  0  0  0  0
    1.1366   -7.3444   15.2670 C   0  0  0  0  0  0  0  0  0  0  0  0
  1  7  4  0
  1 11  4  0
  2  5  4  0
  3 18  1  0
  4  6  4  0
  4 14  4  0
  6  9  4  0
  7 24  4  0
  8 22  1  0
  8 28  1  0
  9 30  4  0
 10 14  4  0
 10 30  4  0
 11 17  4  0
 12 19  2  0
 12 20  1  0
 12 30  1  0
 13 32  1  0
 17 34  4  0
 24 34  4  0
M  END
$$$$

 Created by Python create_sdf_string function

 34 63  0  0  0  0  0  0  0  0999 V2000
    9.8689   -7.8085   18.5624 C   0  0  0  0  0  0  0  0  0  0  0  0
    6.6638   -9.0115   16.2189 P   0  0  0  0  0  0  0  0  0  0  0  0
   10.9391   -3.9957   23.8161 C   0  0  0  0  0  0  0  0  0  0  0  0
   11.7865   -2.9304   24.4449 O   0  0  0  0  0  0  0  0  0  0  0  0
    2.8133   -7.4200   15.2093 C   0  0  0  0  0  0  0  0  0  0  0  0
    8.1225   -6.8273   16.1710 C   0  0  0  0  0  0  0  0  0  0  0  0
   12.0910   -4.1841   21.0094 Cl  0  0  0  0  0  0  0  0  0  0  0  0
   10.8881   -3.2505   19.5076 C   0  0  0  0  0  0  0  0  0  0  0  0
    6.0572   -8.6393   13.9838 B   0  0  0  0  0  0  0  0  0  0  0  0
   12.6705   -4.6392   22.9293 C   0  0  0  0  0  0  0  0  0  0  0  0
    0.5955   -7.8970   16.0864 C   0  0  0  0  0  0  0  0  0  0  0  0
   10.8850   -2.7823   19.4696 O   0  0  0  0  0  0  0  0  0  0  0  0
   11.1917   -5.0746   18.7874 C   0  0  0  0  0  0  0  0  0  0  0  0
    9.4208   -5.3875   18.4412 C   0  0  0  0  0  0  0  0  0  0  0  0
    6.6889   -6.2185   14.5360 C   0  0  0  0  0  0  0  0  0  0  0  0
    0.8556   -7.0823   14.9639 C   0  0  0  0  0  0  0  0  0  0  0  0
    7.5254   -5.2363   17.7409 F   0  0  0  0  0  0  0  0  0  0  0  0
    6.1870   -6.6481   16.2214 O   0  0  0  0  0  0  0  0  0  0  0  0
    7.0079   -6.8526   18.4734 S   0  0  0  0  0  0  0  0  0  0  0  0
    9.8571   -3.9560   15.8064 C   0  0  0  0  0  0  0  0  0  0  0  0
    3.5178   -9.1096   17.5552 Br  0  0  0  0  0  0  0  0  0  0  0  0
    9.9839   -3.5330   21.0523 C   0  0  0  0  0  0  0  0  0  0  0  0
    4.6548  -10.1845   17.5649 N   0  0  0  0  0  0  0  0  0  0  0  0
    3.6589   -5.3483   16.9258 He  0  0  0  0  0  0  0  0  0  0  0  0
    8.8475   -6.8127   17.9332 He  0  0  0  0  0  0  0  0  0  0  0  0
   10.5648   -3.0504   23.4100 He  0  0  0  0  0  0  0  0  0  0  0  0
    2.0818   -7.6765   16.0377 He  0  0  0  0  0  0  0  0  0  0  0  0
    3.4778  -10.8614   17.5661 He  0  0  0  0  0  0  0  0  0  0  0  0
    7.9411   -4.4114   18.1097 He  0  0  0  0  0  0  0  0  0  0  0  0
    6.3874   -8.4042   16.2287 He  0  0  0  0  0  0  0  0  0  0  0  0
    3.5407   -9.1274   14.7909 He  0  0  0  0  0  0  0  0  0  0  0  0
    8.2194   -5.2331   18.1009 He  0  0  0  0  0  0  0  0  0  0  0  0
    7.1741   -8.3973   14.3370 He  0  0  0  0  0  0  0  0  0  0  0  0
    0.7749   -7.8518   14.9015 He  0  0  0  0  0  0  0  0  0  0  0  0
  1  3  3  0
  1 11  2  0
  1 22  2  0
  2  3  4  0
  2  5  4  0
  2  6  4  0
  2  8  1  0
  2 10  4  0
  2 14  4  0
  2 15  3  0
  2 17  1  0
  2 20  4  0
  2 21  4  0
  3  4  4  0
  3  9  1  0
  3 10  2  0
  3 11  3  0
  3 18  1  0
  3 19  2  0
  3 20  1  0
  3 22  4  0
  3 23  3  0
  4 14  4  0
  4 17  1  0
  4 21  2  0
  5  9  4  0
  5 12  2  0
  5 14  3  0
  5 15  4  0
  5 16  4  0
  6 20  1  0
  7 10  1  0
  7 19  2  0
  7 21  1  0
  8  9  1  0
  8 12  2  0
  8 13  1  0
  8 15  4  0
  8 17  2  0
  8 22  1  0
  8 23  2  0
  9 11  1  0
  9 17  3  0
  9 21  4  0
  9 22  1  0
 10 15  4  0
 10 18  1  0
 10 23  2  0
 11 12  2  0
 11 16  4  0
 11 21  3  0
 12 23  4  0
 13 21  4  0
 13 23  4  0
 15 16  3  0
 15 19  2  0
 15 23  4  0
 16 17  1  0
 16 23  2  0
 17 22  3  0
 19 21  2  0
 19 22  4  0
 20 23  2  0
M  END
$$$$

 Created by Python create_sdf_string function

 34 22  0  0  0  0  0  0  0  0999 V2000
    3.8162   -7.2058   15.9329 C   0  0  0  0  0  0  0  0  0  0  0  0
    9.5712   -7.6312   18.2463 C   0  0  0  0  0  0  0  0  0  0  0  0
    6.6006   -8.8103   16.4363 C   0  0  0  0  0  0  0  0  0  0  0  0
   11.6110   -3.9124   23.8505 C   0  0  0  0  0  0  0  0  0  0  0  0
    9.0827   -6.8732   18.0531 C   0  0  0  0  0  0  0  0  0  0  0  0
   11.1851   -3.2942   24.0887 C   0  0  0  0  0  0  0  0  0  0  0  0
    2.6331   -7.3837   14.9099 C   0  0  0  0  0  0  0  0  0  0  0  0
    8.3423   -6.7524   16.0368 C   0  0  0  0  0  0  0  0  0  0  0  0
   10.4657   -3.0432   22.8322 C   0  0  0  0  0  0  0  0  0  0  0  0
   11.8375   -4.4369   21.6449 C   0  0  0  0  0  0  0  0  0  0  0  0
    2.1752   -8.0904   16.3108 C   0  0  0  0  0  0  0  0  0  0  0  0
   10.6660   -3.6809   19.7824 C   0  0  0  0  0  0  0  0  0  0  0  0
    5.7834   -8.7581   15.1294 C   0  0  0  0  0  0  0  0  0  0  0  0
   12.3470   -4.5974   22.7735 C   0  0  0  0  0  0  0  0  0  0  0  0
    3.8098   -9.8559   17.6541 C   0  0  0  0  0  0  0  0  0  0  0  0
    8.9028   -4.5902   17.7221 C   0  0  0  0  0  0  0  0  0  0  0  0
    0.7275   -8.1009   16.1468 C   0  0  0  0  0  0  0  0  0  0  0  0
    6.0198   -8.5917   16.5949 C   0  0  0  0  0  0  0  0  0  0  0  0
   10.9621   -2.6525   19.2301 O   0  0  0  0  0  0  0  0  0  0  0  0
   10.9091   -4.9701   18.9885 C   0  0  0  0  0  0  0  0  0  0  0  0
    9.7228   -5.4699   18.4834 C   0  0  0  0  0  0  0  0  0  0  0  0
    6.8431   -6.9289   15.5317 C   0  0  0  0  0  0  0  0  0  0  0  0
    3.9560   -8.6256   15.8888 C   0  0  0  0  0  0  0  0  0  0  0  0
    1.0576   -7.1714   14.6117 C   0  0  0  0  0  0  0  0  0  0  0  0
    8.3682   -5.4714   17.3837 C   0  0  0  0  0  0  0  0  0  0  0  0
    5.9912   -6.3309   15.9487 O   0  0  0  0  0  0  0  0  0  0  0  0
    7.5401   -7.3753   18.1505 C   0  0  0  0  0  0  0  0  0  0  0  0
    9.5736   -4.2561   16.2120 C   0  0  0  0  0  0  0  0  0  0  0  0
    3.6915   -9.1405   17.0923 C   0  0  0  0  0  0  0  0  0  0  0  0
   10.8831   -3.6882   21.2936 C   0  0  0  0  0  0  0  0  0  0  0  0
    8.1946   -5.2354   18.1284 C   0  0  0  0  0  0  0  0  0  0  0  0
    7.2433   -8.5243   15.4219 C   0  0  0  0  0  0  0  0  0  0  0  0
    4.7523   -9.7089   17.5920 C   0  0  0  0  0  0  0  0  0  0  0  0
    0.5142   -7.6900   15.1883 C   0  0  0  0  0  0  0  0  0  0  0  0
  2  5  1  0
  3 18  1  0
  4  6  4  0
  4 14  4  0
  5 21  1  0
  5 27  1  0
  6  9  4  0
  7 24  4  0
  8 22  1  0
  9 30  4  0
 10 14  4  0
 10 30  4  0
 11 17  4  0
 12 19  2  0
 12 20  1  0
 12 30  1  0
 15 33  4  0
 17 34  4  0
 20 21  1  0
 22 26  1  0
 24 34  4  0
 25 31  1  0
M  END
$$$$

 Created by Python create_sdf_string function

 34 87  0  0  0  0  0  0  0  0999 V2000
    1.9943   -5.2110   15.6544 F   0  0  0  0  0  0  0  0  0  0  0  0
    6.0322  -10.1911   15.9726 P   0  0  0  0  0  0  0  0  0  0  0  0
   11.2620   -3.2814   24.5706 C   0  0  0  0  0  0  0  0  0  0  0  0
    2.5476   -7.3800   15.1662 C   0  0  0  0  0  0  0  0  0  0  0  0
    8.9055   -7.2069   16.9656 F   0  0  0  0  0  0  0  0  0  0  0  0
   10.1986   -1.9350   22.6629 N   0  0  0  0  0  0  0  0  0  0  0  0
    2.0113   -7.6573   16.3234 C   0  0  0  0  0  0  0  0  0  0  0  0
    8.1557   -4.9130   18.4663 F   0  0  0  0  0  0  0  0  0  0  0  0
    0.4312   -7.6223   15.6964 C   0  0  0  0  0  0  0  0  0  0  0  0
    5.7120   -7.8283   15.6246 N   0  0  0  0  0  0  0  0  0  0  0  0
   10.3664   -2.3942   19.4479 O   0  0  0  0  0  0  0  0  0  0  0  0
   10.7502   -4.6273   18.7885 C   0  0  0  0  0  0  0  0  0  0  0  0
    9.6727   -4.8566   18.1961 C   0  0  0  0  0  0  0  0  0  0  0  0
    6.5602   -7.8879   15.3848 Se  0  0  0  0  0  0  0  0  0  0  0  0
    5.2876  -10.2679   16.1924 F   0  0  0  0  0  0  0  0  0  0  0  0
    0.5022   -7.6767   14.7253 Cl  0  0  0  0  0  0  0  0  0  0  0  0
    6.0941   -6.2090   15.9347 O   0  0  0  0  0  0  0  0  0  0  0  0
    5.7544   -6.8974   17.6863 Cl  0  0  0  0  0  0  0  0  0  0  0  0
    9.6099   -4.5312   16.0552 C   0  0  0  0  0  0  0  0  0  0  0  0
    3.6756   -8.5336   15.9783 N   0  0  0  0  0  0  0  0  0  0  0  0
    7.1827   -7.2200   14.6016 N   0  0  0  0  0  0  0  0  0  0  0  0
    0.2509   -7.5670   15.8114 C   0  0  0  0  0  0  0  0  0  0  0  0
    7.8026   -7.8863   17.6356 He  0  0  0  0  0  0  0  0  0  0  0  0
   11.6756   -4.1688   23.7910 He  0  0  0  0  0  0  0  0  0  0  0  0
    8.9891   -7.4744   17.7621 He  0  0  0  0  0  0  0  0  0  0  0  0
   11.9422   -4.5781   21.3252 He  0  0  0  0  0  0  0  0  0  0  0  0
   10.4108   -3.5222   19.8622 He  0  0  0  0  0  0  0  0  0  0  0  0
    7.5856   -6.8229   15.3464 He  0  0  0  0  0  0  0  0  0  0  0  0
   11.9568   -4.8301   22.3486 He  0  0  0  0  0  0  0  0  0  0  0  0
    3.9835   -9.9821   16.0135 He  0  0  0  0  0  0  0  0  0  0  0  0
    8.9299   -3.7906   17.5143 He  0  0  0  0  0  0  0  0  0  0  0  0
   10.9998   -3.4119   21.5303 He  0  0  0  0  0  0  0  0  0  0  0  0
    8.3494   -5.7460   18.0627 He  0  0  0  0  0  0  0  0  0  0  0  0
    5.7649   -9.6591   14.4784 He  0  0  0  0  0  0  0  0  0  0  0  0
  1  3  3  0
  1  4  4  0
  1  6  2  0
  1  8  3  0
  1  9  1  0
  1 11  4  0
  1 13  2  0
  1 14  2  0
  1 16  3  0
  1 19  4  0
  1 20  4  0
  1 21  3  0
  1 22  1  0
  2  5  1  0
  2  8  3  0
  2 10  1  0
  2 11  1  0
  2 13  4  0
  2 14  1  0
  2 17  2  0
  2 18  4  0
  2 19  4  0
  3  4  3  0
  3  6  1  0
  3 10  3  0
  3 12  4  0
  3 14  4  0
  3 15  4  0
  3 20  1  0
  3 21  4  0
  4  6  4  0
  4  7  3  0
  4 10  1  0
  4 13  4  0
  4 15  1  0
  4 16  4  0
  4 18  2  0
  4 19  3  0
  4 20  3  0
  5 15  4  0
  5 17  4  0
  6  9  3  0
  6 10  1  0
  6 14  1  0
  6 18  4  0
  7  8  3  0
  7  9  4  0
  7 10  4  0
  7 15  4  0
  7 18  2  0
  8 12  1  0
  8 14  4  0
  8 19  1  0
  8 21  3  0
  9 10  2  0
  9 11  4  0
  9 12  4  0
  9 21  3  0
  9 22  4  0
 10 12  1  0
 10 17  3  0
 10 18  1  0
 10 19  4  0
 10 20  1  0
 10 21  1  0
 11 14  4  0
 11 15  1  0
 11 18  3  0
 11 21  3  0
 12 17  1  0
 12 20  4  0
 12 21  1  0
 13 17  1  0
 13 18  1  0
 13 20  1  0
 13 21  1  0
 14 16  1  0
 14 19  2  0
 15 19  3  0
 15 20  1  0
 15 22  3  0
 16 18  1  0
 16 22  4  0
 18 22  3  0
 19 20  3  0
 20 21  2  0
 21 22  4  0
M  END
$$$$

 Created by Python create_sdf_string function

 34 18  0  0  0  0  0  0  0  0999 V2000
    2.3381   -6.7493   14.9753 C   0  0  0  0  0  0  0  0  0  0  0  0
    7.7906   -7.9481   17.5614 F   0  0  0  0  0  0  0  0  0  0  0  0
    6.1880   -9.7688   16.2991 C   0  0  0  0  0  0  0  0  0  0  0  0
   11.6254   -4.2174   23.9380 C   0  0  0  0  0  0  0  0  0  0  0  0
    9.0379   -7.3085   17.9780 C   0  0  0  0  0  0  0  0  0  0  0  0
   10.9517   -3.1304   23.9498 C   0  0  0  0  0  0  0  0  0  0  0  0
    2.4580   -7.1978   15.2537 C   0  0  0  0  0  0  0  0  0  0  0  0
    8.9027   -7.3774   17.0643 F   0  0  0  0  0  0  0  0  0  0  0  0
   10.5371   -2.7192   22.6052 C   0  0  0  0  0  0  0  0  0  0  0  0
   11.7184   -4.6531   21.5877 C   0  0  0  0  0  0  0  0  0  0  0  0
    2.0033   -8.2527   16.3439 C   0  0  0  0  0  0  0  0  0  0  0  0
   10.6175   -3.4744   20.0600 C   0  0  0  0  0  0  0  0  0  0  0  0
    7.5772   -6.9057   15.9172 C   0  0  0  0  0  0  0  0  0  0  0  0
   11.9729   -4.8979   22.8710 C   0  0  0  0  0  0  0  0  0  0  0  0
    4.1080   -9.3775   16.5383 C   0  0  0  0  0  0  0  0  0  0  0  0
    9.1576   -5.2817   18.3166 C   0  0  0  0  0  0  0  0  0  0  0  0
    0.6631   -8.0045   16.1271 C   0  0  0  0  0  0  0  0  0  0  0  0
    5.2426   -8.0001   16.0791 C   0  0  0  0  0  0  0  0  0  0  0  0
   10.8811   -2.5797   19.5215 O   0  0  0  0  0  0  0  0  0  0  0  0
   10.4305   -4.5302   19.1201 C   0  0  0  0  0  0  0  0  0  0  0  0
    9.7094   -5.0264   18.1859 C   0  0  0  0  0  0  0  0  0  0  0  0
    6.7273   -8.2910   15.7883 C   0  0  0  0  0  0  0  0  0  0  0  0
    5.1034   -9.8293   16.6878 C   0  0  0  0  0  0  0  0  0  0  0  0
    0.7711   -7.1354   14.8131 C   0  0  0  0  0  0  0  0  0  0  0  0
    9.7919   -4.2170   17.0066 C   0  0  0  0  0  0  0  0  0  0  0  0
    6.2145   -6.1490   15.6446 O   0  0  0  0  0  0  0  0  0  0  0  0
    6.0717   -7.4354   17.5695 C   0  0  0  0  0  0  0  0  0  0  0  0
    9.4253   -4.6246   16.1054 C   0  0  0  0  0  0  0  0  0  0  0  0
    3.6944   -8.3535   16.2603 C   0  0  0  0  0  0  0  0  0  0  0  0
   10.9682   -3.5681   21.5591 C   0  0  0  0  0  0  0  0  0  0  0  0
    8.4894   -5.9853   18.0655 C   0  0  0  0  0  0  0  0  0  0  0  0
    7.2868   -7.4557   15.4642 C   0  0  0  0  0  0  0  0  0  0  0  0
    5.8450   -9.5468   15.4518 C   0  0  0  0  0  0  0  0  0  0  0  0
    0.0294   -7.5673   15.4553 C   0  0  0  0  0  0  0  0  0  0  0  0
  1  7  4  0
  1 24  4  0
  4  6  4  0
  4 14  4  0
  5  8  1  0
  6  9  4  0
  9 30  4  0
 10 14  4  0
 10 30  4  0
 11 17  4  0
 12 19  2  0
 12 20  1  0
 12 30  1  0
 13 32  1  0
 17 34  4  0
 20 21  1  0
 24 34  4  0
 25 28  4  0
M  END
$$$$

 Created by Python create_sdf_string function

 34139  0  0  0  0  0  0  0  0999 V2000
    2.5338   -6.8182   14.2319 C   0  0  0  0  0  0  0  0  0  0  0  0
    6.3090   -9.0629   19.1734 O   0  0  0  0  0  0  0  0  0  0  0  0
   11.5075   -4.5365   23.5933 C   0  0  0  0  0  0  0  0  0  0  0  0
   10.3116   -7.1022   18.2907 S   0  0  0  0  0  0  0  0  0  0  0  0
   10.4964   -3.4786   23.2386 C   0  0  0  0  0  0  0  0  0  0  0  0
    3.0269   -7.5563   15.3190 C   0  0  0  0  0  0  0  0  0  0  0  0
    9.5892   -7.3329   17.0338 F   0  0  0  0  0  0  0  0  0  0  0  0
   10.8566   -2.9522   23.0906 F   0  0  0  0  0  0  0  0  0  0  0  0
   11.6162   -4.4081   21.3972 C   0  0  0  0  0  0  0  0  0  0  0  0
    1.9789   -8.3621   16.8297 C   0  0  0  0  0  0  0  0  0  0  0  0
    7.4674   -5.9863   15.9374 P   0  0  0  0  0  0  0  0  0  0  0  0
   11.6986   -5.1435   22.5184 O   0  0  0  0  0  0  0  0  0  0  0  0
    3.6024  -10.1957   16.8713 F   0  0  0  0  0  0  0  0  0  0  0  0
    6.5373   -4.2506   18.8248 F   0  0  0  0  0  0  0  0  0  0  0  0
    1.0806   -7.7728   15.9531 C   0  0  0  0  0  0  0  0  0  0  0  0
    5.4863   -8.8011   16.1520 O   0  0  0  0  0  0  0  0  0  0  0  0
   10.2826   -3.0855   19.1908 O   0  0  0  0  0  0  0  0  0  0  0  0
   10.4670   -4.4608   19.2203 C   0  0  0  0  0  0  0  0  0  0  0  0
    9.2363   -5.2250   17.6103 C   0  0  0  0  0  0  0  0  0  0  0  0
    9.1297   -8.0902   15.9964 S   0  0  0  0  0  0  0  0  0  0  0  0
    1.2028   -7.4420   14.9408 C   0  0  0  0  0  0  0  0  0  0  0  0
    9.4742   -3.9551   17.2378 S   0  0  0  0  0  0  0  0  0  0  0  0
    7.0273   -5.6695   15.4955 O   0  0  0  0  0  0  0  0  0  0  0  0
    6.3051   -8.4669   19.2220 N   0  0  0  0  0  0  0  0  0  0  0  0
    9.4423   -4.0297   16.7184 C   0  0  0  0  0  0  0  0  0  0  0  0
   11.0984   -3.3862   21.4559 C   0  0  0  0  0  0  0  0  0  0  0  0
    8.3969   -5.9161   17.9112 C   0  0  0  0  0  0  0  0  0  0  0  0
    6.8757   -6.9257   14.4590 P   0  0  0  0  0  0  0  0  0  0  0  0
    6.3934   -7.2407   14.3904 Cl  0  0  0  0  0  0  0  0  0  0  0  0
   -0.5985   -7.2251   15.9341 C   0  0  0  0  0  0  0  0  0  0  0  0
    5.8654  -10.0231   16.7406 He  0  0  0  0  0  0  0  0  0  0  0  0
   10.3740   -3.7491   19.7319 He  0  0  0  0  0  0  0  0  0  0  0  0
    5.5959   -8.4148   14.9404 He  0  0  0  0  0  0  0  0  0  0  0  0
    4.4373   -7.7433   15.3079 He  0  0  0  0  0  0  0  0  0  0  0  0
  1  2  3  0
  1  3  3  0
  1  4  1  0
  1  6  1  0
  1  7  2  0
  1  9  3  0
  1 11  2  0
  1 13  3  0
  1 15  3  0
  1 19  4  0
  1 20  4  0
  1 24  4  0
  1 28  1  0
  2  6  4  0
  2  8  3  0
  2 11  4  0
  2 13  3  0
  2 16  4  0
  2 17  4  0
  2 18  1  0
  2 20  1  0
  2 24  4  0
  2 25  4  0
  2 26  2  0
  2 28  3  0
  2 30  1  0
  3  5  4  0
  3 12  4  0
  3 22  3  0
  3 24  1  0
  3 27  4  0
  3 29  1  0
  4  7  1  0
  4  9  1  0
  4 11  2  0
  4 13  4  0
  4 14  2  0
  4 16  2  0
  4 20  1  0
  4 22  1  0
  4 25  2  0
  4 27  4  0
  4 29  4  0
  5  8  4  0
  5 11  3  0
  5 13  3  0
  5 19  4  0
  5 21  2  0
  5 27  3  0
  5 28  1  0
  5 29  4  0
  6 14  3  0
  6 15  2  0
  6 19  3  0
  6 21  2  0
  6 25  2  0
  6 28  3  0
  7 21  3  0
  7 26  1  0
  7 29  2  0
  8 13  1  0
  8 14  4  0
  8 16  1  0
  8 20  3  0
  8 24  2  0
  8 25  2  0
  8 26  2  0
  8 29  1  0
  8 30  3  0
  9 12  3  0
  9 14  2  0
  9 15  1  0
  9 19  3  0
  9 21  2  0
  9 26  4  0
 10 12  4  0
 10 13  1  0
 10 15  4  0
 10 24  3  0
 11 12  2  0
 11 13  3  0
 11 14  3  0
 11 15  4  0
 11 16  3  0
 11 19  2  0
 11 23  2  0
 11 26  3  0
 11 29  3  0
 12 17  3  0
 12 20  3  0
 12 24  4  0
 12 28  2  0
 12 29  4  0
 13 16  4  0
 13 17  1  0
 13 20  4  0
 13 29  3  0
 14 15  3  0
 14 23  3  0
 14 25  1  0
 14 26  2  0
 14 27  1  0
 14 29  1  0
 14 30  1  0
 15 22  2  0
 15 25  4  0
 15 27  1  0
 15 28  4  0
 16 18  1  0
 16 21  2  0
 16 23  4  0
 16 24  2  0
 16 25  1  0
 16 30  2  0
 17 24  1  0
 18 19  2  0
 18 20  1  0
 18 27  3  0
 18 29  2  0
 19 20  4  0
 19 27  1  0
 19 28  2  0
 19 30  2  0
 20 22  2  0
 20 29  2  0
 20 30  4  0
 21 22  3  0
 21 27  2  0
 21 29  4  0
 21 30  4  0
 22 24  3  0
 22 26  4  0
 22 27  1  0
 23 27  1  0
 23 30  2  0
 24 29  1  0
 24 30  3  0
 25 28  4  0
 28 29  2  0
M  END
$$$$

 Created by Python create_sdf_string function

 34 23  0  0  0  0  0  0  0  0999 V2000
    2.3873   -6.9934   14.6370 C   0  0  0  0  0  0  0  0  0  0  0  0
    6.2438   -8.5093   18.4239 O   0  0  0  0  0  0  0  0  0  0  0  0
    5.7831   -9.3779   16.8653 C   0  0  0  0  0  0  0  0  0  0  0  0
   11.3385   -4.6211   23.7034 C   0  0  0  0  0  0  0  0  0  0  0  0
    9.7834   -7.1185   18.2262 C   0  0  0  0  0  0  0  0  0  0  0  0
   10.8101   -3.4398   23.7658 C   0  0  0  0  0  0  0  0  0  0  0  0
    2.9210   -7.5290   15.2004 C   0  0  0  0  0  0  0  0  0  0  0  0
    9.4692   -7.6874   17.4306 F   0  0  0  0  0  0  0  0  0  0  0  0
   10.5484   -2.7908   22.7851 C   0  0  0  0  0  0  0  0  0  0  0  0
   11.3553   -4.5069   21.4599 C   0  0  0  0  0  0  0  0  0  0  0  0
    1.8709   -8.6420   16.6336 C   0  0  0  0  0  0  0  0  0  0  0  0
   10.5903   -4.0815   19.6175 C   0  0  0  0  0  0  0  0  0  0  0  0
    7.7242   -6.1298   16.2481 C   0  0  0  0  0  0  0  0  0  0  0  0
   11.6428   -5.1449   22.5973 C   0  0  0  0  0  0  0  0  0  0  0  0
    4.0506   -9.2917   17.0934 C   0  0  0  0  0  0  0  0  0  0  0  0
    7.8037   -5.8602   18.6037 C   0  0  0  0  0  0  0  0  0  0  0  0
    0.8608   -8.1400   16.2512 C   0  0  0  0  0  0  0  0  0  0  0  0
    5.2338   -8.7045   16.5980 C   0  0  0  0  0  0  0  0  0  0  0  0
   10.7467   -2.9509   18.7577 O   0  0  0  0  0  0  0  0  0  0  0  0
   10.3035   -4.5977   19.0873 C   0  0  0  0  0  0  0  0  0  0  0  0
    9.5095   -5.3092   18.0044 C   0  0  0  0  0  0  0  0  0  0  0  0
    8.6595   -8.1908   16.5335 C   0  0  0  0  0  0  0  0  0  0  0  0
    5.5384   -8.2304   15.6833 C   0  0  0  0  0  0  0  0  0  0  0  0
    1.0530   -7.0809   14.8339 C   0  0  0  0  0  0  0  0  0  0  0  0
    9.9193   -4.0994   16.9420 C   0  0  0  0  0  0  0  0  0  0  0  0
    7.2688   -5.4978   15.4881 O   0  0  0  0  0  0  0  0  0  0  0  0
    6.3738   -8.3136   18.2765 C   0  0  0  0  0  0  0  0  0  0  0  0
    9.5376   -4.1216   16.5920 C   0  0  0  0  0  0  0  0  0  0  0  0
    4.1669   -7.8867   15.5490 C   0  0  0  0  0  0  0  0  0  0  0  0
   10.8500   -3.4521   21.4829 C   0  0  0  0  0  0  0  0  0  0  0  0
    8.6393   -5.9893   17.8914 C   0  0  0  0  0  0  0  0  0  0  0  0
    6.6890   -7.4253   15.3500 C   0  0  0  0  0  0  0  0  0  0  0  0
    6.3149   -7.4691   15.1854 C   0  0  0  0  0  0  0  0  0  0  0  0
    0.0710   -7.4244   15.5027 C   0  0  0  0  0  0  0  0  0  0  0  0
  1  7  4  0
  1 24  4  0
  2 27  4  0
  4  6  4  0
  4 14  4  0
  5  8  1  0
  6  9  4  0
  7 29  4  0
  8 22  1  0
  9 30  4  0
 10 14  4  0
 10 30  4  0
 11 17  4  0
 12 20  1  0
 12 30  1  0
 13 26  2  0
 16 31  1  0
 17 34  4  0
 20 21  1  0
 21 31  1  0
 24 34  4  0
 25 28  1  0
 32 33  1  0
M  END
$$$$

 Created by Python create_sdf_string function

 34 94  0  0  0  0  0  0  0  0999 V2000
    1.3455   -5.6003   15.5749 F   0  0  0  0  0  0  0  0  0  0  0  0
    5.9764   -9.8311   17.2787 C   0  0  0  0  0  0  0  0  0  0  0  0
    7.5849  -10.4423   16.6886 N   0  0  0  0  0  0  0  0  0  0  0  0
   10.5114   -4.6486   23.9033 S   0  0  0  0  0  0  0  0  0  0  0  0
    9.2236   -6.7120   19.6076 F   0  0  0  0  0  0  0  0  0  0  0  0
    3.1807   -7.7296   15.5280 C   0  0  0  0  0  0  0  0  0  0  0  0
   10.8647   -2.6746   22.9145 C   0  0  0  0  0  0  0  0  0  0  0  0
   11.3740   -4.3962   21.6473 N   0  0  0  0  0  0  0  0  0  0  0  0
    2.3348   -9.4329   16.8130 C   0  0  0  0  0  0  0  0  0  0  0  0
   11.1647   -3.9203   20.3381 S   0  0  0  0  0  0  0  0  0  0  0  0
   11.7603   -5.2353   22.4479 O   0  0  0  0  0  0  0  0  0  0  0  0
    7.6735   -5.9147   18.0896 N   0  0  0  0  0  0  0  0  0  0  0  0
    0.8463   -8.1778   16.6016 F   0  0  0  0  0  0  0  0  0  0  0  0
   10.8241   -2.8512   19.2305 O   0  0  0  0  0  0  0  0  0  0  0  0
   10.3702   -3.8198   18.2747 C   0  0  0  0  0  0  0  0  0  0  0  0
    7.7445   -7.8397   17.9917 B   0  0  0  0  0  0  0  0  0  0  0  0
    0.5546   -7.6978   14.8960 C   0  0  0  0  0  0  0  0  0  0  0  0
    9.7592   -5.0666   17.1717 C   0  0  0  0  0  0  0  0  0  0  0  0
    7.1443   -5.0351   16.6933 O   0  0  0  0  0  0  0  0  0  0  0  0
    9.3294   -4.3261   16.8654 C   0  0  0  0  0  0  0  0  0  0  0  0
   10.3997   -3.2055   21.9347 P   0  0  0  0  0  0  0  0  0  0  0  0
    9.2829   -6.2793   17.6582 C   0  0  0  0  0  0  0  0  0  0  0  0
    6.0449   -6.8783   13.4488 C   0  0  0  0  0  0  0  0  0  0  0  0
    6.1637   -8.5942   14.0142 C   0  0  0  0  0  0  0  0  0  0  0  0
    0.3760   -7.2855   15.9262 C   0  0  0  0  0  0  0  0  0  0  0  0
   11.2685   -3.3883   24.0803 He  0  0  0  0  0  0  0  0  0  0  0  0
    9.9689   -7.7436   17.0089 He  0  0  0  0  0  0  0  0  0  0  0  0
    9.5566   -7.1990   17.7154 He  0  0  0  0  0  0  0  0  0  0  0  0
    2.6059   -8.7888   18.0382 He  0  0  0  0  0  0  0  0  0  0  0  0
    6.0845   -9.5770   16.9315 He  0  0  0  0  0  0  0  0  0  0  0  0
    9.7768   -4.9217   17.3948 He  0  0  0  0  0  0  0  0  0  0  0  0
    5.6877   -8.3189   14.7364 He  0  0  0  0  0  0  0  0  0  0  0  0
    8.5169   -6.3853   17.9319 He  0  0  0  0  0  0  0  0  0  0  0  0
    3.3439   -5.7333   16.8009 He  0  0  0  0  0  0  0  0  0  0  0  0
  1  3  4  0
  1  5  1  0
  1 11  4  0
  1 15  1  0
  1 17  4  0
  1 18  4  0
  2  4  2  0
  2  5  3  0
  2  8  1  0
  2  9  2  0
  2 12  2  0
  2 19  1  0
  2 20  2  0
  2 21  1  0
  2 22  1  0
  2 23  4  0
  2 25  3  0
  3  6  2  0
  3  8  1  0
  3  9  4  0
  3 13  3  0
  3 15  3  0
  3 19  2  0
  3 20  3  0
  3 24  3  0
  4  8  1  0
  4  9  3  0
  4 11  4  0
  4 12  1  0
  4 16  1  0
  4 17  1  0
  4 21  4  0
  5  7  4  0
  5  8  3  0
  5  9  4  0
  5 16  3  0
  5 17  2  0
  5 18  1  0
  5 21  3  0
  5 22  4  0
  5 24  4  0
  5 25  1  0
  6 16  2  0
  6 23  1  0
  6 24  3  0
  7  8  2  0
  7 21  4  0
  7 23  4  0
  7 24  1  0
  8 11  4  0
  8 18  1  0
  9 10  4  0
  9 11  1  0
  9 12  2  0
  9 18  2  0
  9 23  3  0
  9 24  1  0
  9 25  3  0
 10 12  4  0
 10 15  1  0
 10 21  1  0
 11 23  3  0
 11 24  4  0
 12 13  1  0
 12 14  1  0
 12 15  1  0
 12 17  2  0
 12 18  3  0
 12 20  3  0
 12 22  2  0
 12 25  1  0
 13 15  4  0
 13 16  3  0
 13 20  4  0
 13 23  2  0
 13 24  3  0
 14 15  2  0
 14 16  2  0
 14 19  4  0
 14 21  4  0
 14 24  1  0
 15 22  1  0
 16 17  3  0
 16 24  3  0
 17 21  4  0
 17 24  2  0
 17 25  4  0
 18 24  2  0
 19 21  4  0
 20 25  3  0
 21 24  4  0
 23 24  4  0
 23 25  1  0
 24 25  3  0
M  END
$$$$

 Created by Python create_sdf_string function

 34 23  0  0  0  0  0  0  0  0999 V2000
    2.1032   -6.7721   14.9068 C   0  0  0  0  0  0  0  0  0  0  0  0
    5.8147   -9.0745   17.2602 C   0  0  0  0  0  0  0  0  0  0  0  0
    7.1396   -9.2268   16.3933 C   0  0  0  0  0  0  0  0  0  0  0  0
   11.3026   -4.5568   23.8730 C   0  0  0  0  0  0  0  0  0  0  0  0
   10.0318   -6.4666   18.9343 C   0  0  0  0  0  0  0  0  0  0  0  0
   10.9559   -3.3458   24.0640 C   0  0  0  0  0  0  0  0  0  0  0  0
    3.1111   -7.6666   15.7104 C   0  0  0  0  0  0  0  0  0  0  0  0
    9.2818   -8.1026   17.5275 C   0  0  0  0  0  0  0  0  0  0  0  0
   10.7117   -2.7341   22.8714 C   0  0  0  0  0  0  0  0  0  0  0  0
   11.1548   -4.7354   21.6536 C   0  0  0  0  0  0  0  0  0  0  0  0
    2.2152   -9.0232   16.8802 C   0  0  0  0  0  0  0  0  0  0  0  0
   10.7709   -3.9802   20.2785 C   0  0  0  0  0  0  0  0  0  0  0  0
    9.0449   -7.3660   17.8006 C   0  0  0  0  0  0  0  0  0  0  0  0
   11.3810   -5.2345   22.7355 C   0  0  0  0  0  0  0  0  0  0  0  0
    3.0555   -9.1328   16.9604 C   0  0  0  0  0  0  0  0  0  0  0  0
    7.7486   -6.3731   17.3569 C   0  0  0  0  0  0  0  0  0  0  0  0
    0.8763   -8.5133   16.5543 C   0  0  0  0  0  0  0  0  0  0  0  0
    5.9401   -8.8052   17.0918 C   0  0  0  0  0  0  0  0  0  0  0  0
   11.0328   -2.7231   18.4944 O   0  0  0  0  0  0  0  0  0  0  0  0
   10.5861   -3.8577   18.6581 C   0  0  0  0  0  0  0  0  0  0  0  0
    9.9474   -4.6375   17.7784 N   0  0  0  0  0  0  0  0  0  0  0  0
    7.5593   -7.9166   17.5666 C   0  0  0  0  0  0  0  0  0  0  0  0
    5.3087   -8.2235   15.6106 C   0  0  0  0  0  0  0  0  0  0  0  0
    0.6826   -7.2235   15.2346 C   0  0  0  0  0  0  0  0  0  0  0  0
    9.6699   -4.7671   17.0436 C   0  0  0  0  0  0  0  0  0  0  0  0
    7.2259   -5.3903   16.0467 O   0  0  0  0  0  0  0  0  0  0  0  0
    8.4602   -6.2676   17.3815 C   0  0  0  0  0  0  0  0  0  0  0  0
    9.4377   -4.0680   16.4807 C   0  0  0  0  0  0  0  0  0  0  0  0
    3.6388   -7.0915   15.4721 C   0  0  0  0  0  0  0  0  0  0  0  0
   10.8129   -3.2878   21.7956 C   0  0  0  0  0  0  0  0  0  0  0  0
    9.3407   -6.1903   17.7813 C   0  0  0  0  0  0  0  0  0  0  0  0
    5.4807   -7.1452   15.0416 C   0  0  0  0  0  0  0  0  0  0  0  0
    5.8346   -8.4316   15.3369 C   0  0  0  0  0  0  0  0  0  0  0  0
    0.4147   -7.5632   15.7350 C   0  0  0  0  0  0  0  0  0  0  0  0
  1  7  4  0
  1 24  4  0
  2 18  1  0
  4  6  4  0
  4 14  4  0
  6  9  4  0
  7 29  1  0
  9 30  4  0
 10 12  1  0
 10 14  4  0
 10 30  4  0
 11 15  4  0
 11 17  4  0
 12 20  1  0
 12 30  1  0
 13 31  1  0
 17 34  4  0
 19 20  2  0
 20 21  1  0
 21 28  1  0
 23 33  1  0
 24 34  4  0
 25 28  1  0
M  END
$$$$

 Created by Python create_sdf_string function

 34 60  0  0  0  0  0  0  0  0999 V2000
    1.7785   -6.9876   14.9473 C   0  0  0  0  0  0  0  0  0  0  0  0
    8.7356   -8.5297   14.5890 N   0  0  0  0  0  0  0  0  0  0  0  0
   11.4187   -4.5425   22.7412 C   0  0  0  0  0  0  0  0  0  0  0  0
    9.1924   -4.6526   19.8694 F   0  0  0  0  0  0  0  0  0  0  0  0
   10.7189   -3.7123   24.3906 C   0  0  0  0  0  0  0  0  0  0  0  0
   10.6917   -2.7458   22.1895 C   0  0  0  0  0  0  0  0  0  0  0  0
    1.8056   -9.2678   16.3296 C   0  0  0  0  0  0  0  0  0  0  0  0
    9.9721   -3.5255   20.4804 C   0  0  0  0  0  0  0  0  0  0  0  0
   12.3055   -5.2931   22.3531 S   0  0  0  0  0  0  0  0  0  0  0  0
    1.6463  -10.3577   19.0910 C   0  0  0  0  0  0  0  0  0  0  0  0
    8.5224   -5.1833   14.6169 F   0  0  0  0  0  0  0  0  0  0  0  0
    0.8567   -8.9000   15.8647 C   0  0  0  0  0  0  0  0  0  0  0  0
   10.9464   -2.6749   18.3071 O   0  0  0  0  0  0  0  0  0  0  0  0
   10.8642   -3.4291   18.1391 C   0  0  0  0  0  0  0  0  0  0  0  0
    9.6925   -4.2197   18.5293 N   0  0  0  0  0  0  0  0  0  0  0  0
    4.9679   -8.4813   16.1598 F   0  0  0  0  0  0  0  0  0  0  0  0
    7.2141   -5.0735   16.2268 N   0  0  0  0  0  0  0  0  0  0  0  0
    7.5558   -5.3211   17.5197 S   0  0  0  0  0  0  0  0  0  0  0  0
    9.1104   -4.7204   16.3190 C   0  0  0  0  0  0  0  0  0  0  0  0
    9.5257   -6.3643   18.2835 C   0  0  0  0  0  0  0  0  0  0  0  0
    0.7749   -7.3972   15.9147 S   0  0  0  0  0  0  0  0  0  0  0  0
    6.3268   -8.9450   17.3327 He  0  0  0  0  0  0  0  0  0  0  0  0
    3.3026   -7.9774   15.7719 He  0  0  0  0  0  0  0  0  0  0  0  0
    9.7876   -8.3806   17.3164 He  0  0  0  0  0  0  0  0  0  0  0  0
   11.3777   -4.0704   21.7304 He  0  0  0  0  0  0  0  0  0  0  0  0
   10.0496   -8.4506   16.6063 He  0  0  0  0  0  0  0  0  0  0  0  0
    4.8660   -9.0051   16.8053 He  0  0  0  0  0  0  0  0  0  0  0  0
    8.7018   -7.7999   16.9755 He  0  0  0  0  0  0  0  0  0  0  0  0
    1.5311   -6.8644   14.7419 He  0  0  0  0  0  0  0  0  0  0  0  0
   12.4077   -4.0045   17.6002 He  0  0  0  0  0  0  0  0  0  0  0  0
    2.4272   -6.7403   15.3791 He  0  0  0  0  0  0  0  0  0  0  0  0
   11.2790   -3.2731   21.7099 He  0  0  0  0  0  0  0  0  0  0  0  0
    5.5909   -7.1098   13.4720 He  0  0  0  0  0  0  0  0  0  0  0  0
    5.8710   -8.4373   14.9181 He  0  0  0  0  0  0  0  0  0  0  0  0
  1  4  1  0
  1  6  2  0
  1  7  2  0
  1 11  4  0
  1 12  3  0
  1 14  3  0
  1 17  4  0
  1 18  2  0
  1 20  4  0
  2  3  2  0
  2  4  3  0
  2  9  1  0
  2 11  1  0
  2 15  2  0
  2 16  4  0
  2 19  1  0
  2 21  2  0
  3  6  3  0
  3  9  4  0
  3 12  2  0
  3 16  1  0
  3 17  1  0
  3 18  1  0
  4  8  4  0
  4 12  3  0
  4 17  4  0
  4 20  1  0
  4 21  3  0
  5  6  4  0
  5  9  1  0
  5 10  2  0
  5 16  4  0
  5 20  4  0
  6  7  1  0
  6 10  1  0
  6 11  4  0
  6 16  4  0
  7 10  3  0
  7 11  1  0
  7 13  2  0
  8 10  4  0
  8 16  3  0
  9 10  4  0
  9 20  2  0
 10 16  3  0
 10 18  1  0
 11 12  1  0
 11 14  3  0
 11 15  2  0
 11 16  2  0
 12 17  4  0
 12 21  4  0
 13 14  2  0
 14 18  1  0
 15 17  3  0
 15 19  1  0
 16 19  2  0
 18 19  1  0
 18 20  1  0
 20 21  1  0
M  END
$$$$

 Created by Python create_sdf_string function

 34 26  0  0  0  0  0  0  0  0999 V2000
    2.0304   -7.0244   15.2524 C   0  0  0  0  0  0  0  0  0  0  0  0
    6.2685   -8.5675   17.3120 C   0  0  0  0  0  0  0  0  0  0  0  0
    7.9571   -8.3449   15.2345 C   0  0  0  0  0  0  0  0  0  0  0  0
   11.6483   -4.7616   23.5835 C   0  0  0  0  0  0  0  0  0  0  0  0
    9.7621   -4.7886   19.4862 C   0  0  0  0  0  0  0  0  0  0  0  0
   11.0123   -3.6277   23.9161 C   0  0  0  0  0  0  0  0  0  0  0  0
    3.4325   -8.4328   16.2285 C   0  0  0  0  0  0  0  0  0  0  0  0
    9.1512   -8.2955   17.5159 C   0  0  0  0  0  0  0  0  0  0  0  0
   10.6100   -2.9176   22.8643 C   0  0  0  0  0  0  0  0  0  0  0  0
   11.3440   -4.4574   21.5416 C   0  0  0  0  0  0  0  0  0  0  0  0
    2.1344   -9.0689   16.6333 C   0  0  0  0  0  0  0  0  0  0  0  0
   10.4538   -3.5769   20.3905 C   0  0  0  0  0  0  0  0  0  0  0  0
    8.9787   -8.1997   17.0260 C   0  0  0  0  0  0  0  0  0  0  0  0
   12.0090   -5.1146   22.5178 C   0  0  0  0  0  0  0  0  0  0  0  0
    2.1895  -10.0721   17.5124 C   0  0  0  0  0  0  0  0  0  0  0  0
    8.0267   -5.6915   15.8772 C   0  0  0  0  0  0  0  0  0  0  0  0
    0.9595   -8.8047   16.3615 C   0  0  0  0  0  0  0  0  0  0  0  0
    4.4503   -9.0304   17.0202 C   0  0  0  0  0  0  0  0  0  0  0  0
   11.2011   -2.3582   18.1117 O   0  0  0  0  0  0  0  0  0  0  0  0
   10.9071   -3.4758   17.9975 C   0  0  0  0  0  0  0  0  0  0  0  0
    9.8652   -4.3444   18.0840 N   0  0  0  0  0  0  0  0  0  0  0  0
    8.1262   -7.6314   16.8682 C   0  0  0  0  0  0  0  0  0  0  0  0
    4.9455   -8.3775   16.2836 C   0  0  0  0  0  0  0  0  0  0  0  0
    1.4636   -6.8838   14.8851 C   0  0  0  0  0  0  0  0  0  0  0  0
   11.7612   -4.0156   17.1653 C   0  0  0  0  0  0  0  0  0  0  0  0
    7.4955   -5.5307   15.6849 O   0  0  0  0  0  0  0  0  0  0  0  0
    8.6241   -5.9789   17.2513 C   0  0  0  0  0  0  0  0  0  0  0  0
    9.3814   -4.5249   16.6628 C   0  0  0  0  0  0  0  0  0  0  0  0
    2.8422   -7.1776   15.2089 C   0  0  0  0  0  0  0  0  0  0  0  0
   10.7921   -3.6125   21.6321 C   0  0  0  0  0  0  0  0  0  0  0  0
    9.3660   -6.3144   18.5350 C   0  0  0  0  0  0  0  0  0  0  0  0
    5.6042   -7.3119   14.9888 C   0  0  0  0  0  0  0  0  0  0  0  0
    6.2036   -8.1664   15.6426 C   0  0  0  0  0  0  0  0  0  0  0  0
    0.5412   -7.8417   15.6467 C   0  0  0  0  0  0  0  0  0  0  0  0
  1 24  4  0
  1 29  4  0
  4  6  4  0
  4 14  4  0
  5 12  1  0
  5 21  1  0
  5 31  1  0
  6  9  4  0
  7 11  4  0
  8 13  1  0
  9 30  4  0
 10 14  4  0
 10 30  4  0
 11 15  4  0
 11 17  4  0
 12 30  1  0
 16 26  2  0
 17 34  4  0
 19 20  2  0
 20 21  1  0
 20 25  1  0
 21 28  1  0
 24 34  4  0
 27 28  1  0
 27 31  1  0
 32 33  1  0
M  END
$$$$

 Created by Python create_sdf_string function

 34123  0  0  0  0  0  0  0  0999 V2000
   -0.0546   -6.1038   13.6252 P   0  0  0  0  0  0  0  0  0  0  0  0
    7.0377   -6.8922   19.3019 Cl  0  0  0  0  0  0  0  0  0  0  0  0
   11.5915   -5.3189   23.4166 C   0  0  0  0  0  0  0  0  0  0  0  0
    9.6434   -4.0510   19.7734 C   0  0  0  0  0  0  0  0  0  0  0  0
   10.4410   -3.3180   23.8616 C   0  0  0  0  0  0  0  0  0  0  0  0
    3.3244   -8.1971   16.4014 C   0  0  0  0  0  0  0  0  0  0  0  0
    7.9108   -8.7349   17.8082 C   0  0  0  0  0  0  0  0  0  0  0  0
   10.7965   -3.3797   22.3648 C   0  0  0  0  0  0  0  0  0  0  0  0
   11.3511   -4.8129   20.9958 C   0  0  0  0  0  0  0  0  0  0  0  0
    2.2830   -9.8634   16.3776 C   0  0  0  0  0  0  0  0  0  0  0  0
   10.6610   -3.0904   20.2027 C   0  0  0  0  0  0  0  0  0  0  0  0
    9.8381  -10.0040   18.2007 F   0  0  0  0  0  0  0  0  0  0  0  0
   11.6039   -5.2913   22.5271 C   0  0  0  0  0  0  0  0  0  0  0  0
    7.7802   -4.8189   16.0096 P   0  0  0  0  0  0  0  0  0  0  0  0
    0.3862   -8.8458   16.6312 C   0  0  0  0  0  0  0  0  0  0  0  0
   11.8663   -2.8649   18.2517 O   0  0  0  0  0  0  0  0  0  0  0  0
   11.0910   -3.2969   18.3140 C   0  0  0  0  0  0  0  0  0  0  0  0
    9.2976   -4.5297   17.8152 N   0  0  0  0  0  0  0  0  0  0  0  0
    5.1734   -7.5156   16.6241 N   0  0  0  0  0  0  0  0  0  0  0  0
    2.2364   -7.0426   15.0439 C   0  0  0  0  0  0  0  0  0  0  0  0
   11.2937   -3.1779   17.5904 P   0  0  0  0  0  0  0  0  0  0  0  0
    7.6690   -5.6434   15.7789 O   0  0  0  0  0  0  0  0  0  0  0  0
    8.7376   -6.8100   17.4065 C   0  0  0  0  0  0  0  0  0  0  0  0
    9.2390   -4.3218   17.0760 C   0  0  0  0  0  0  0  0  0  0  0  0
    2.9719   -4.6802   16.7766 C   0  0  0  0  0  0  0  0  0  0  0  0
   10.0415   -3.4875   22.2189 C   0  0  0  0  0  0  0  0  0  0  0  0
    9.6334   -6.3197   19.2667 C   0  0  0  0  0  0  0  0  0  0  0  0
    5.4933   -7.2271   15.9932 F   0  0  0  0  0  0  0  0  0  0  0  0
    0.6919   -7.8298   15.9434 C   0  0  0  0  0  0  0  0  0  0  0  0
    9.6967   -8.5112   16.3042 He  0  0  0  0  0  0  0  0  0  0  0  0
    3.9865  -11.0819   17.9708 He  0  0  0  0  0  0  0  0  0  0  0  0
    3.4718  -10.2409   16.6335 He  0  0  0  0  0  0  0  0  0  0  0  0
    8.8102   -6.9820   15.4420 He  0  0  0  0  0  0  0  0  0  0  0  0
    5.7887   -9.2707   15.1841 He  0  0  0  0  0  0  0  0  0  0  0  0
  1  5  4  0
  1  6  2  0
  1  9  3  0
  1 11  3  0
  1 13  3  0
  1 14  3  0
  1 18  1  0
  1 19  2  0
  1 20  1  0
  1 21  1  0
  1 22  3  0
  1 26  3  0
  1 29  1  0
  2  3  4  0
  2  6  3  0
  2  7  3  0
  2  8  4  0
  2 13  1  0
  2 15  3  0
  2 20  1  0
  2 21  1  0
  2 27  3  0
  3  5  4  0
  3 10  1  0
  3 12  3  0
  3 13  2  0
  3 19  4  0
  3 24  1  0
  4  5  1  0
  4  7  4  0
  4 10  4  0
  4 14  4  0
  4 16  4  0
  4 17  1  0
  4 20  4  0
  4 22  1  0
  4 23  1  0
  4 24  2  0
  4 29  2  0
  5 14  1  0
  5 16  2  0
  5 25  3  0
  5 28  3  0
  6  9  4  0
  6 10  4  0
  6 14  2  0
  6 17  3  0
  6 19  2  0
  6 25  1  0
  7 11  2  0
  7 12  3  0
  7 23  1  0
  7 29  1  0
  8  9  2  0
  8 12  4  0
  8 13  3  0
  8 26  4  0
  8 27  1  0
  8 28  4  0
  9 13  4  0
  9 16  3  0
  9 17  2  0
  9 21  4  0
  9 22  2  0
  9 25  4  0
 10 15  4  0
 10 16  2  0
 10 21  2  0
 10 22  3  0
 10 27  4  0
 10 28  4  0
 11 20  4  0
 11 23  1  0
 11 26  1  0
 12 17  4  0
 12 18  2  0
 12 19  1  0
 12 23  1  0
 12 25  1  0
 12 27  1  0
 12 28  1  0
 13 14  3  0
 13 18  4  0
 13 25  2  0
 13 26  1  0
 14 15  3  0
 14 17  3  0
 14 23  3  0
 14 25  3  0
 14 26  1  0
 14 29  2  0
 15 16  2  0
 15 21  4  0
 15 25  3  0
 15 26  4  0
 15 28  1  0
 15 29  4  0
 16 17  2  0
 16 22  1  0
 17 19  3  0
 17 23  2  0
 17 28  1  0
 18 19  3  0
 18 21  3  0
 18 22  3  0
 18 23  4  0
 18 24  1  0
 18 28  3  0
 19 22  2  0
 19 24  4  0
 19 25  4  0
 19 27  2  0
 19 28  2  0
 20 25  1  0
 21 26  2  0
 21 29  4  0
 22 28  2  0
 23 24  1  0
 23 25  4  0
 23 28  3  0
 24 25  1  0
 25 28  2  0
 26 28  1  0
M  END
$$$$

 Created by Python create_sdf_string function

 34 26  0  0  0  0  0  0  0  0999 V2000
   -0.2236   -7.1630   14.8552 Cl  0  0  0  0  0  0  0  0  0  0  0  0
    7.0354   -7.2714   18.1569 C   0  0  0  0  0  0  0  0  0  0  0  0
    8.4217   -7.9997   16.2641 C   0  0  0  0  0  0  0  0  0  0  0  0
   11.4200   -4.9203   23.7057 C   0  0  0  0  0  0  0  0  0  0  0  0
   10.4449   -3.9913   19.2406 C   0  0  0  0  0  0  0  0  0  0  0  0
   10.7784   -3.7154   23.9718 C   0  0  0  0  0  0  0  0  0  0  0  0
    3.0589   -8.3674   16.3135 C   0  0  0  0  0  0  0  0  0  0  0  0
    7.8725   -8.4678   17.6660 C   0  0  0  0  0  0  0  0  0  0  0  0
   10.4123   -3.0138   22.8530 C   0  0  0  0  0  0  0  0  0  0  0  0
   11.2342   -5.0317   21.3794 C   0  0  0  0  0  0  0  0  0  0  0  0
    2.0678   -9.2239   16.6568 C   0  0  0  0  0  0  0  0  0  0  0  0
   10.3763   -3.3161   20.3239 C   0  0  0  0  0  0  0  0  0  0  0  0
    9.1840   -8.1651   18.1430 C   0  0  0  0  0  0  0  0  0  0  0  0
   11.6220   -5.4169   22.5675 C   0  0  0  0  0  0  0  0  0  0  0  0
    4.4961  -10.0401   17.7064 O   0  0  0  0  0  0  0  0  0  0  0  0
    8.0935   -5.6944   16.0205 C   0  0  0  0  0  0  0  0  0  0  0  0
    0.7680   -8.9143   16.2045 C   0  0  0  0  0  0  0  0  0  0  0  0
    4.2831   -9.5298   17.1847 C   0  0  0  0  0  0  0  0  0  0  0  0
   11.5395   -2.4160   17.9992 O   0  0  0  0  0  0  0  0  0  0  0  0
   10.9139   -3.4052   18.1994 C   0  0  0  0  0  0  0  0  0  0  0  0
    9.4624   -4.9173   17.8942 N   0  0  0  0  0  0  0  0  0  0  0  0
    8.1850   -7.3092   15.9409 C   0  0  0  0  0  0  0  0  0  0  0  0
    5.2905   -8.0592   16.5751 N   0  0  0  0  0  0  0  0  0  0  0  0
    2.0463   -6.9320   15.2748 C   0  0  0  0  0  0  0  0  0  0  0  0
   10.7393   -3.6035   17.0308 C   0  0  0  0  0  0  0  0  0  0  0  0
    7.4980   -5.4817   15.5193 O   0  0  0  0  0  0  0  0  0  0  0  0
    8.7807   -6.6386   17.5913 C   0  0  0  0  0  0  0  0  0  0  0  0
    9.3744   -4.4129   16.8438 C   0  0  0  0  0  0  0  0  0  0  0  0
    3.2023   -6.9934   15.5247 C   0  0  0  0  0  0  0  0  0  0  0  0
   10.6337   -3.6214   21.7100 C   0  0  0  0  0  0  0  0  0  0  0  0
    9.7092   -6.4160   18.8706 C   0  0  0  0  0  0  0  0  0  0  0  0
    5.7386   -7.7138   16.4131 C   0  0  0  0  0  0  0  0  0  0  0  0
    5.8772   -8.8763   16.3406 C   0  0  0  0  0  0  0  0  0  0  0  0
    0.6342   -7.7763   15.5170 C   0  0  0  0  0  0  0  0  0  0  0  0
  1 34  1  0
  2  8  1  0
  3 22  1  0
  4  6  4  0
  4 14  4  0
  5 12  1  0
  5 20  1  0
  6  9  4  0
  7 11  4  0
  7 29  4  0
  8 13  1  0
  9 30  4  0
 10 14  4  0
 10 30  4  0
 11 17  4  0
 12 30  1  0
 13 31  1  0
 15 18  2  0
 16 26  2  0
 17 34  4  0
 19 20  2  0
 20 25  1  0
 21 28  1  0
 23 32  1  0
 24 29  4  0
 24 34  4  0
M  END
$$$$

 Created by Python create_sdf_string function

 34 77  0  0  0  0  0  0  0  0999 V2000
   -0.0678   -5.8560   16.2872 O   0  0  0  0  0  0  0  0  0  0  0  0
    7.1932   -5.9570   17.3768 S   0  0  0  0  0  0  0  0  0  0  0  0
    7.9939   -8.1868   16.6265 C   0  0  0  0  0  0  0  0  0  0  0  0
   11.2909   -5.1112   23.1939 C   0  0  0  0  0  0  0  0  0  0  0  0
    2.8693   -8.1756   16.9350 C   0  0  0  0  0  0  0  0  0  0  0  0
    7.4086   -8.6427   17.5208 C   0  0  0  0  0  0  0  0  0  0  0  0
   11.1117   -3.1506   22.9331 C   0  0  0  0  0  0  0  0  0  0  0  0
    1.6056   -9.1225   16.6827 S   0  0  0  0  0  0  0  0  0  0  0  0
   10.6364   -3.6988   20.0718 C   0  0  0  0  0  0  0  0  0  0  0  0
    7.9355   -6.7898   17.5099 Cl  0  0  0  0  0  0  0  0  0  0  0  0
   10.6509   -5.2407   23.0998 C   0  0  0  0  0  0  0  0  0  0  0  0
    4.7881  -10.6685   18.5639 C   0  0  0  0  0  0  0  0  0  0  0  0
    0.6302   -8.7235   16.0431 C   0  0  0  0  0  0  0  0  0  0  0  0
   11.9655   -2.6533   17.4896 O   0  0  0  0  0  0  0  0  0  0  0  0
   10.3141   -3.5436   18.0862 C   0  0  0  0  0  0  0  0  0  0  0  0
    9.6981   -4.8023   18.4087 N   0  0  0  0  0  0  0  0  0  0  0  0
    7.1646   -5.5421   15.3850 B   0  0  0  0  0  0  0  0  0  0  0  0
    5.9346   -9.5767   16.7596 Cl  0  0  0  0  0  0  0  0  0  0  0  0
    2.1230   -7.2628   15.7565 C   0  0  0  0  0  0  0  0  0  0  0  0
    9.4669   -4.4784   17.4319 C   0  0  0  0  0  0  0  0  0  0  0  0
   11.0433   -3.6345   21.7627 C   0  0  0  0  0  0  0  0  0  0  0  0
   10.1914   -6.2500   18.4822 C   0  0  0  0  0  0  0  0  0  0  0  0
    1.3004   -7.3942   14.9788 C   0  0  0  0  0  0  0  0  0  0  0  0
    9.4365   -6.5057   20.8107 He  0  0  0  0  0  0  0  0  0  0  0  0
   10.9178   -3.0684   24.4944 He  0  0  0  0  0  0  0  0  0  0  0  0
   10.8945   -4.7521   21.6083 He  0  0  0  0  0  0  0  0  0  0  0  0
    8.7061   -6.7682   16.1673 He  0  0  0  0  0  0  0  0  0  0  0  0
    3.2632   -8.6995   18.7241 He  0  0  0  0  0  0  0  0  0  0  0  0
    9.3624   -2.2087   16.9354 He  0  0  0  0  0  0  0  0  0  0  0  0
    6.5673   -5.7567   16.4253 He  0  0  0  0  0  0  0  0  0  0  0  0
    8.0382   -6.2838   17.2109 He  0  0  0  0  0  0  0  0  0  0  0  0
    3.0410   -7.2637   15.8739 He  0  0  0  0  0  0  0  0  0  0  0  0
    6.1846   -7.9217   16.2200 He  0  0  0  0  0  0  0  0  0  0  0  0
    7.0125   -8.2518   16.0794 He  0  0  0  0  0  0  0  0  0  0  0  0
  1  4  3  0
  1  7  3  0
  1 10  4  0
  1 12  4  0
  1 13  4  0
  1 14  4  0
  1 15  4  0
  1 16  2  0
  1 17  2  0
  1 18  2  0
  1 20  4  0
  2  3  4  0
  2  5  2  0
  2  8  1  0
  2 10  2  0
  2 14  1  0
  2 15  4  0
  2 16  1  0
  2 19  4  0
  2 20  1  0
  2 21  3  0
  2 22  4  0
  3  5  2  0
  3  6  4  0
  3  7  1  0
  3  8  1  0
  3 14  2  0
  3 17  2  0
  3 18  3  0
  3 20  3  0
  3 21  3  0
  3 22  2  0
  4 11  1  0
  4 14  3  0
  4 16  3  0
  5  8  4  0
  5 10  2  0
  5 18  3  0
  5 19  1  0
  5 23  2  0
  6  7  1  0
  7 18  1  0
  7 19  4  0
  7 21  4  0
  8 10  2  0
  8 13  4  0
  8 17  1  0
  8 18  4  0
  8 21  4  0
  8 23  1  0
  9 15  2  0
  9 16  3  0
  9 17  3  0
 10 11  1  0
 10 13  2  0
 10 17  3  0
 10 18  4  0
 10 20  3  0
 10 23  2  0
 11 12  3  0
 11 18  2  0
 11 20  1  0
 11 21  3  0
 12 16  3  0
 12 17  1  0
 12 19  2  0
 12 23  4  0
 13 23  4  0
 16 17  1  0
 16 21  1  0
 16 23  2  0
 17 19  1  0
 17 20  1  0
 17 21  1  0
 18 20  4  0
 18 22  1  0
 19 23  4  0
M  END
$$$$

 Created by Python create_sdf_string function

 34 22  0  0  0  0  0  0  0  0999 V2000
    0.2406   -7.3769   15.0390 O   0  0  0  0  0  0  0  0  0  0  0  0
    7.7200   -6.2835   16.9518 C   0  0  0  0  0  0  0  0  0  0  0  0
    7.8679   -8.2175   16.5752 C   0  0  0  0  0  0  0  0  0  0  0  0
   11.1800   -4.9777   23.6332 C   0  0  0  0  0  0  0  0  0  0  0  0
   10.3277   -5.7870   20.0944 C   0  0  0  0  0  0  0  0  0  0  0  0
   11.0164   -3.3537   24.1318 C   0  0  0  0  0  0  0  0  0  0  0  0
    2.9152   -8.6682   16.7591 C   0  0  0  0  0  0  0  0  0  0  0  0
    7.3543   -8.9268   17.6078 C   0  0  0  0  0  0  0  0  0  0  0  0
   10.9607   -2.7761   23.0372 C   0  0  0  0  0  0  0  0  0  0  0  0
   10.8833   -4.3714   21.3267 C   0  0  0  0  0  0  0  0  0  0  0  0
    1.6040   -9.1426   16.7671 C   0  0  0  0  0  0  0  0  0  0  0  0
   10.7873   -3.9711   19.7706 C   0  0  0  0  0  0  0  0  0  0  0  0
    8.1234   -6.9355   17.3032 C   0  0  0  0  0  0  0  0  0  0  0  0
   11.1552   -5.1340   23.1125 C   0  0  0  0  0  0  0  0  0  0  0  0
    4.9300   -9.7819   17.9568 C   0  0  0  0  0  0  0  0  0  0  0  0
    8.5489   -6.7220   16.3958 C   0  0  0  0  0  0  0  0  0  0  0  0
    0.5195   -8.6185   16.0131 C   0  0  0  0  0  0  0  0  0  0  0  0
    4.0678   -9.3516   17.5813 C   0  0  0  0  0  0  0  0  0  0  0  0
   11.4370   -2.5226   17.6715 O   0  0  0  0  0  0  0  0  0  0  0  0
   10.7584   -3.3753   18.2101 C   0  0  0  0  0  0  0  0  0  0  0  0
   10.0945   -4.7937   18.7278 N   0  0  0  0  0  0  0  0  0  0  0  0
    7.1960   -5.9423   15.5212 C   0  0  0  0  0  0  0  0  0  0  0  0
    5.5642   -9.1516   17.1837 C   0  0  0  0  0  0  0  0  0  0  0  0
    2.3276   -6.9423   15.5012 C   0  0  0  0  0  0  0  0  0  0  0  0
    9.9600   -3.6469   16.6943 C   0  0  0  0  0  0  0  0  0  0  0  0
    6.2751   -5.9356   15.9930 O   0  0  0  0  0  0  0  0  0  0  0  0
    8.5977   -5.9501   17.0144 C   0  0  0  0  0  0  0  0  0  0  0  0
    9.4447   -4.6465   17.1720 C   0  0  0  0  0  0  0  0  0  0  0  0
    3.4838   -7.5447   16.0496 C   0  0  0  0  0  0  0  0  0  0  0  0
   10.9206   -3.3284   21.7551 C   0  0  0  0  0  0  0  0  0  0  0  0
    9.8503   -6.3225   18.7177 C   0  0  0  0  0  0  0  0  0  0  0  0
    5.6009   -7.9465   16.4429 C   0  0  0  0  0  0  0  0  0  0  0  0
    6.6459   -8.0980   16.1760 C   0  0  0  0  0  0  0  0  0  0  0  0
    0.9925   -7.2700   15.3065 C   0  0  0  0  0  0  0  0  0  0  0  0
  1 34  1  0
  4  6  4  0
  4 14  4  0
  6  9  4  0
  7 11  4  0
  7 18  4  0
  7 29  4  0
  9 30  4  0
 10 12  1  0
 10 14  4  0
 10 30  4  0
 11 17  4  0
 12 20  4  0
 12 21  1  0
 15 18  4  0
 15 23  4  0
 17 34  4  0
 19 20  2  0
 21 31  1  0
 24 29  4  0
 24 34  4  0
 27 28  1  0
M  END
$$$$

 Created by Python create_sdf_string function

 34 80  0  0  0  0  0  0  0  0999 V2000
    9.5748   -5.2609   17.6692 Cl  0  0  0  0  0  0  0  0  0  0  0  0
   10.9303   -4.6225   23.8258 C   0  0  0  0  0  0  0  0  0  0  0  0
    9.9093   -4.3442   22.7574 C   0  0  0  0  0  0  0  0  0  0  0  0
   11.6945   -3.8740   23.8359 C   0  0  0  0  0  0  0  0  0  0  0  0
    7.6377   -8.9623   17.1671 C   0  0  0  0  0  0  0  0  0  0  0  0
   10.7028   -3.0084   23.9725 C   0  0  0  0  0  0  0  0  0  0  0  0
    2.2051   -9.1743   16.6547 C   0  0  0  0  0  0  0  0  0  0  0  0
   11.0209   -4.2495   19.0129 C   0  0  0  0  0  0  0  0  0  0  0  0
    8.0398   -6.4512   17.9171 P   0  0  0  0  0  0  0  0  0  0  0  0
   10.4039   -7.4322   16.4761 N   0  0  0  0  0  0  0  0  0  0  0  0
    0.6565   -8.5396   15.9646 C   0  0  0  0  0  0  0  0  0  0  0  0
   11.4621   -2.7847   17.8253 O   0  0  0  0  0  0  0  0  0  0  0  0
    9.9587   -4.5129   18.3307 N   0  0  0  0  0  0  0  0  0  0  0  0
    2.2319   -6.4966   15.6279 C   0  0  0  0  0  0  0  0  0  0  0  0
    9.7102   -4.6510   16.3023 C   0  0  0  0  0  0  0  0  0  0  0  0
    5.6327   -5.5256   15.6796 O   0  0  0  0  0  0  0  0  0  0  0  0
    9.6337   -4.5618   17.0830 C   0  0  0  0  0  0  0  0  0  0  0  0
    3.8986   -8.1163   14.8399 N   0  0  0  0  0  0  0  0  0  0  0  0
    9.9753   -3.5699   22.2412 C   0  0  0  0  0  0  0  0  0  0  0  0
    5.9320   -8.5682   16.5486 N   0  0  0  0  0  0  0  0  0  0  0  0
    6.3219   -7.2667   14.7856 O   0  0  0  0  0  0  0  0  0  0  0  0
    0.4222   -7.3132   15.0307 C   0  0  0  0  0  0  0  0  0  0  0  0
   -1.0629   -6.7315   14.6812 He  0  0  0  0  0  0  0  0  0  0  0  0
    7.5123  -10.1173   15.6106 He  0  0  0  0  0  0  0  0  0  0  0  0
    2.4809   -9.2035   16.5261 He  0  0  0  0  0  0  0  0  0  0  0  0
   11.0862   -4.8871   21.7600 He  0  0  0  0  0  0  0  0  0  0  0  0
   10.8606   -4.3214   23.2109 He  0  0  0  0  0  0  0  0  0  0  0  0
    4.8192  -10.3688   18.5639 He  0  0  0  0  0  0  0  0  0  0  0  0
    6.5213   -7.2189   18.9686 He  0  0  0  0  0  0  0  0  0  0  0  0
   10.9793   -2.6366   18.0943 He  0  0  0  0  0  0  0  0  0  0  0  0
    6.8660   -5.3250   15.7479 He  0  0  0  0  0  0  0  0  0  0  0  0
    5.6119   -8.9166   18.8715 He  0  0  0  0  0  0  0  0  0  0  0  0
    7.4499   -5.0017   16.7703 He  0  0  0  0  0  0  0  0  0  0  0  0
    9.7241   -6.3413   18.4469 He  0  0  0  0  0  0  0  0  0  0  0  0
  1  3  4  0
  1  5  3  0
  1 11  3  0
  1 12  4  0
  1 14  3  0
  1 15  1  0
  1 16  2  0
  1 17  2  0
  1 19  4  0
  2  4  1  0
  2  5  1  0
  2  6  3  0
  2 11  4  0
  2 17  4  0
  2 20  4  0
  2 21  4  0
  3  4  4  0
  3 10  4  0
  3 11  2  0
  3 12  4  0
  3 14  3  0
  3 18  4  0
  3 19  1  0
  3 20  3  0
  3 21  4  0
  4  6  4  0
  4  7  2  0
  4  8  1  0
  4 18  1  0
  4 20  2  0
  4 21  1  0
  5  9  4  0
  5 11  4  0
  5 12  2  0
  5 13  3  0
  5 15  1  0
  5 20  4  0
  5 21  3  0
  6  7  3  0
  6  8  4  0
  6  9  2  0
  6 10  3  0
  6 15  4  0
  6 17  3  0
  6 18  1  0
  6 19  4  0
  6 20  4  0
  6 22  2  0
  7 11  4  0
  7 18  4  0
  7 22  2  0
  8 13  1  0
  8 15  1  0
  9 10  1  0
  9 11  4  0
  9 17  4  0
  9 18  1  0
  9 22  3  0
 10 11  4  0
 10 13  3  0
 11 13  2  0
 11 14  3  0
 11 20  1  0
 11 22  4  0
 12 13  1  0
 12 18  1  0
 13 18  4  0
 13 20  4  0
 13 21  1  0
 14 19  2  0
 14 20  1  0
 15 16  3  0
 15 20  1  0
 16 19  1  0
 18 20  4  0
 18 21  2  0
 18 22  4  0
 19 20  1  0
 19 21  2  0
 20 21  4  0
M  END
$$$$

 Created by Python create_sdf_string function

 34 23  0  0  0  0  0  0  0  0999 V2000
   -0.2232   -7.2878   14.8649 O   0  0  0  0  0  0  0  0  0  0  0  0
    9.7632   -5.3900   17.9074 C   0  0  0  0  0  0  0  0  0  0  0  0
    7.1306   -8.9412   16.0033 C   0  0  0  0  0  0  0  0  0  0  0  0
   11.3491   -4.6695   24.0256 C   0  0  0  0  0  0  0  0  0  0  0  0
   10.8376   -3.9708   22.4600 C   0  0  0  0  0  0  0  0  0  0  0  0
   11.1862   -3.6363   24.4816 C   0  0  0  0  0  0  0  0  0  0  0  0
    2.8123   -8.7715   16.4042 C   0  0  0  0  0  0  0  0  0  0  0  0
    7.4014   -8.5695   16.9092 C   0  0  0  0  0  0  0  0  0  0  0  0
   10.5726   -2.7798   23.7630 C   0  0  0  0  0  0  0  0  0  0  0  0
   10.9408   -4.5636   21.0197 C   0  0  0  0  0  0  0  0  0  0  0  0
    2.0979   -9.0762   16.4855 C   0  0  0  0  0  0  0  0  0  0  0  0
   11.0372   -4.4803   19.8474 C   0  0  0  0  0  0  0  0  0  0  0  0
    8.1606   -6.9442   17.4140 C   0  0  0  0  0  0  0  0  0  0  0  0
   11.3751   -4.8826   22.9350 C   0  0  0  0  0  0  0  0  0  0  0  0
    4.8814   -9.4399   17.8150 C   0  0  0  0  0  0  0  0  0  0  0  0
    9.2307   -7.4797   17.5863 C   0  0  0  0  0  0  0  0  0  0  0  0
    0.8940   -8.5059   15.8981 C   0  0  0  0  0  0  0  0  0  0  0  0
    6.5262   -7.8072   18.1029 C   0  0  0  0  0  0  0  0  0  0  0  0
   11.1249   -3.0126   17.8818 C   0  0  0  0  0  0  0  0  0  0  0  0
   11.1334   -2.8264   17.8393 O   0  0  0  0  0  0  0  0  0  0  0  0
   10.4012   -4.5525   18.7974 N   0  0  0  0  0  0  0  0  0  0  0  0
    7.3487   -5.8852   15.7109 C   0  0  0  0  0  0  0  0  0  0  0  0
    5.7009   -8.7563   18.1848 C   0  0  0  0  0  0  0  0  0  0  0  0
    2.4031   -6.9843   15.1120 C   0  0  0  0  0  0  0  0  0  0  0  0
    9.6054   -4.4567   16.5046 C   0  0  0  0  0  0  0  0  0  0  0  0
    5.7397   -6.2959   15.3163 O   0  0  0  0  0  0  0  0  0  0  0  0
    8.1591   -5.7473   16.2939 C   0  0  0  0  0  0  0  0  0  0  0  0
    9.5579   -4.6182   16.7657 C   0  0  0  0  0  0  0  0  0  0  0  0
    3.2722   -7.8039   15.8218 C   0  0  0  0  0  0  0  0  0  0  0  0
   10.3952   -3.2692   22.1106 C   0  0  0  0  0  0  0  0  0  0  0  0
    9.7289   -6.6319   18.5808 C   0  0  0  0  0  0  0  0  0  0  0  0
    5.3755   -8.2602   16.5044 N   0  0  0  0  0  0  0  0  0  0  0  0
    5.5895   -7.4134   15.7393 C   0  0  0  0  0  0  0  0  0  0  0  0
    0.9922   -7.4441   15.2153 C   0  0  0  0  0  0  0  0  0  0  0  0
  1 34  1  0
  2 31  1  0
  3  8  1  0
  4  6  4  0
  4 14  4  0
  5 30  4  0
  6  9  4  0
  7 11  4  0
  7 29  4  0
  9 30  4  0
 10 12  1  0
 11 17  4  0
 12 21  1  0
 13 16  1  0
 15 23  1  0
 16 31  1  0
 17 34  4  0
 19 20  2  0
 22 27  1  0
 24 29  4  0
 24 34  4  0
 25 28  1  0
 32 33  4  0
M  END
$$$$

 Created by Python create_sdf_string function

 34 94  0  0  0  0  0  0  0  0999 V2000
   11.2192   -5.1388   23.5310 C   0  0  0  0  0  0  0  0  0  0  0  0
   10.0049   -4.7164   22.5040 P   0  0  0  0  0  0  0  0  0  0  0  0
   11.2978   -3.6974   24.0384 C   0  0  0  0  0  0  0  0  0  0  0  0
    2.8133   -8.6389   16.7287 C   0  0  0  0  0  0  0  0  0  0  0  0
    7.6586   -8.5906   16.6875 C   0  0  0  0  0  0  0  0  0  0  0  0
   10.3287   -2.5171   23.5360 C   0  0  0  0  0  0  0  0  0  0  0  0
    2.2883   -9.4188   16.8213 C   0  0  0  0  0  0  0  0  0  0  0  0
   10.4647   -4.5615   20.0141 C   0  0  0  0  0  0  0  0  0  0  0  0
    8.7406   -8.2281   16.4781 Cl  0  0  0  0  0  0  0  0  0  0  0  0
   11.9801   -4.5173   23.3086 C   0  0  0  0  0  0  0  0  0  0  0  0
    4.8493   -9.6719   17.0353 P   0  0  0  0  0  0  0  0  0  0  0  0
    8.2647   -9.0662   16.8204 C   0  0  0  0  0  0  0  0  0  0  0  0
    0.4549   -8.7691   15.4736 C   0  0  0  0  0  0  0  0  0  0  0  0
    6.8413   -6.5354   18.4572 C   0  0  0  0  0  0  0  0  0  0  0  0
   11.2493   -2.4263   17.8011 C   0  0  0  0  0  0  0  0  0  0  0  0
   11.3757   -2.8321   17.1664 F   0  0  0  0  0  0  0  0  0  0  0  0
   10.3213   -4.0793   18.8546 N   0  0  0  0  0  0  0  0  0  0  0  0
    6.6421   -4.6368   16.2522 C   0  0  0  0  0  0  0  0  0  0  0  0
    6.5412  -10.2901   18.1640 O   0  0  0  0  0  0  0  0  0  0  0  0
    1.8771   -6.9766   14.8097 C   0  0  0  0  0  0  0  0  0  0  0  0
    5.9731   -6.3824   15.1765 O   0  0  0  0  0  0  0  0  0  0  0  0
    9.2054   -5.8516   14.7725 Cl  0  0  0  0  0  0  0  0  0  0  0  0
    9.3170   -4.8591   16.5183 N   0  0  0  0  0  0  0  0  0  0  0  0
   10.4502   -3.4458   22.0413 C   0  0  0  0  0  0  0  0  0  0  0  0
    6.6384   -7.5818   16.1134 C   0  0  0  0  0  0  0  0  0  0  0  0
    1.0684   -7.2591   15.2021 C   0  0  0  0  0  0  0  0  0  0  0  0
    0.2149   -8.1954   15.4885 He  0  0  0  0  0  0  0  0  0  0  0  0
    8.8528   -4.4182   17.0697 He  0  0  0  0  0  0  0  0  0  0  0  0
    5.5209   -9.4260   15.0266 He  0  0  0  0  0  0  0  0  0  0  0  0
   11.0331   -4.8962   21.3940 He  0  0  0  0  0  0  0  0  0  0  0  0
   10.1054   -3.9318   15.7439 He  0  0  0  0  0  0  0  0  0  0  0  0
    4.0321   -5.9040   15.6967 He  0  0  0  0  0  0  0  0  0  0  0  0
    9.5305   -6.8134   18.7607 He  0  0  0  0  0  0  0  0  0  0  0  0
    6.5419   -7.1679   17.2040 He  0  0  0  0  0  0  0  0  0  0  0  0
  1  2  1  0
  1  3  4  0
  1  9  3  0
  1 12  1  0
  1 14  1  0
  1 17  4  0
  1 18  4  0
  1 19  4  0
  1 22  1  0
  2 10  1  0
  2 14  2  0
  2 19  1  0
  2 22  1  0
  2 24  3  0
  2 25  1  0
  2 26  1  0
  3  4  4  0
  3  5  2  0
  3  6  4  0
  3  8  2  0
  3 12  2  0
  3 19  1  0
  3 22  3  0
  3 24  3  0
  4  5  2  0
  4  7  4  0
  4  9  3  0
  4 11  4  0
  4 12  3  0
  4 25  1  0
  5 14  1  0
  5 17  4  0
  5 24  3  0
  6  9  1  0
  6 17  3  0
  6 19  1  0
  6 24  4  0
  6 25  2  0
  7 11  2  0
  7 14  2  0
  7 20  2  0
  7 25  2  0
  7 26  2  0
  8  9  3  0
  8 11  4  0
  8 12  4  0
  8 17  1  0
  8 19  4  0
  8 20  2  0
  8 21  1  0
  9 10  4  0
  9 11  1  0
  9 14  1  0
  9 15  3  0
  9 16  1  0
  9 20  4  0
  9 22  2  0
 10 12  2  0
 10 18  2  0
 10 22  4  0
 10 26  1  0
 11 12  1  0
 11 20  2  0
 11 24  4  0
 12 14  1  0
 12 15  1  0
 12 22  1  0
 12 23  1  0
 13 20  1  0
 13 23  3  0
 13 25  4  0
 13 26  4  0
 14 16  2  0
 14 21  3  0
 14 23  4  0
 14 25  1  0
 14 26  2  0
 15 16  2  0
 16 18  1  0
 17 18  2  0
 17 19  1  0
 18 22  2  0
 18 23  2  0
 19 20  2  0
 19 23  2  0
 19 25  3  0
 19 26  1  0
 20 26  4  0
 21 23  4  0
 22 25  2  0
 23 24  3  0
 23 25  1  0
 24 26  2  0
 25 26  2  0
M  END
$$$$

 Created by Python create_sdf_string function

 34 21  0  0  0  0  0  0  0  0999 V2000
    0.1556   -8.7051   15.4066 O   0  0  0  0  0  0  0  0  0  0  0  0
    9.8045   -4.7135   17.4787 C   0  0  0  0  0  0  0  0  0  0  0  0
    5.1123   -8.8884   16.1455 C   0  0  0  0  0  0  0  0  0  0  0  0
   11.5758   -4.7455   23.8866 C   0  0  0  0  0  0  0  0  0  0  0  0
   10.9216   -4.3710   22.0587 C   0  0  0  0  0  0  0  0  0  0  0  0
   10.9688   -3.4624   24.4225 C   0  0  0  0  0  0  0  0  0  0  0  0
    2.9054   -8.8122   16.4115 C   0  0  0  0  0  0  0  0  0  0  0  0
    7.6056   -8.6882   16.7514 C   0  0  0  0  0  0  0  0  0  0  0  0
   10.3751   -2.6499   23.5554 C   0  0  0  0  0  0  0  0  0  0  0  0
   11.0222   -5.0329   20.8926 C   0  0  0  0  0  0  0  0  0  0  0  0
    1.9644   -9.2025   16.4888 C   0  0  0  0  0  0  0  0  0  0  0  0
   10.3896   -4.6169   19.7653 C   0  0  0  0  0  0  0  0  0  0  0  0
    8.5422   -7.7617   17.1675 C   0  0  0  0  0  0  0  0  0  0  0  0
   11.6569   -5.0729   23.1856 C   0  0  0  0  0  0  0  0  0  0  0  0
    4.6097   -9.1159   16.8837 C   0  0  0  0  0  0  0  0  0  0  0  0
    7.8978   -8.3246   17.0471 C   0  0  0  0  0  0  0  0  0  0  0  0
    0.7781   -8.6265   15.6305 C   0  0  0  0  0  0  0  0  0  0  0  0
    7.2596   -7.0637   17.7119 C   0  0  0  0  0  0  0  0  0  0  0  0
   10.9199   -3.1163   17.6114 C   0  0  0  0  0  0  0  0  0  0  0  0
   11.2690   -2.7135   17.3108 O   0  0  0  0  0  0  0  0  0  0  0  0
   10.4044   -4.1124   18.8040 N   0  0  0  0  0  0  0  0  0  0  0  0
    7.5818   -5.8506   15.8153 C   0  0  0  0  0  0  0  0  0  0  0  0
    5.8995   -9.5009   17.8163 O   0  0  0  0  0  0  0  0  0  0  0  0
    2.2545   -6.9349   15.1345 C   0  0  0  0  0  0  0  0  0  0  0  0
    9.9383   -4.0896   16.2183 C   0  0  0  0  0  0  0  0  0  0  0  0
    5.9066   -6.2650   15.1815 O   0  0  0  0  0  0  0  0  0  0  0  0
    8.5684   -5.8915   15.9283 C   0  0  0  0  0  0  0  0  0  0  0  0
    9.3100   -4.9443   16.4923 N   0  0  0  0  0  0  0  0  0  0  0  0
    3.7510   -7.3032   15.5539 C   0  0  0  0  0  0  0  0  0  0  0  0
   10.3044   -3.1261   22.2739 C   0  0  0  0  0  0  0  0  0  0  0  0
    9.5037   -6.9200   18.5884 O   0  0  0  0  0  0  0  0  0  0  0  0
    6.2990   -7.4515   16.2462 C   0  0  0  0  0  0  0  0  0  0  0  0
    6.4990   -7.3909   16.9606 C   0  0  0  0  0  0  0  0  0  0  0  0
    1.1263   -7.4727   15.1009 C   0  0  0  0  0  0  0  0  0  0  0  0
  1 17  1  0
  2 21  4  0
  3 15  1  0
  4  6  4  0
  4 14  4  0
  5 10  1  0
  5 14  4  0
  5 30  4  0
  6  9  4  0
  7 11  4  0
  7 29  4  0
  8 16  1  0
  9 30  4  0
 10 12  1  0
 11 17  4  0
 12 21  1  0
 17 34  4  0
 19 20  2  0
 24 29  4  0
 24 34  4  0
 25 28  4  0
M  END
$$$$

 Created by Python create_sdf_string function

 34 76  0  0  0  0  0  0  0  0999 V2000
    1.7656   -7.2617   15.8597 F   0  0  0  0  0  0  0  0  0  0  0  0
   11.6029   -5.5899   23.9352 C   0  0  0  0  0  0  0  0  0  0  0  0
   11.0076   -3.1272   24.5135 C   0  0  0  0  0  0  0  0  0  0  0  0
    2.7295   -8.0130   16.4395 C   0  0  0  0  0  0  0  0  0  0  0  0
    7.7869   -8.1709   16.8359 C   0  0  0  0  0  0  0  0  0  0  0  0
   10.5976   -2.4272   23.1601 C   0  0  0  0  0  0  0  0  0  0  0  0
   10.8395   -5.3113   20.9327 C   0  0  0  0  0  0  0  0  0  0  0  0
    1.8173   -8.8661   16.4937 C   0  0  0  0  0  0  0  0  0  0  0  0
   10.5590   -4.9180   20.0657 C   0  0  0  0  0  0  0  0  0  0  0  0
    7.9298   -8.5967   16.8698 O   0  0  0  0  0  0  0  0  0  0  0  0
    0.8645   -9.0827   15.6628 P   0  0  0  0  0  0  0  0  0  0  0  0
   10.7943   -3.3129   17.4534 C   0  0  0  0  0  0  0  0  0  0  0  0
   11.4981   -3.0074   17.5581 P   0  0  0  0  0  0  0  0  0  0  0  0
    5.8591   -6.7302   15.5348 B   0  0  0  0  0  0  0  0  0  0  0  0
    2.0969   -6.3558   14.7812 C   0  0  0  0  0  0  0  0  0  0  0  0
    9.1747   -3.7905   15.3073 C   0  0  0  0  0  0  0  0  0  0  0  0
    5.8959   -6.4772   15.2483 O   0  0  0  0  0  0  0  0  0  0  0  0
    9.8200   -6.8987   16.0449 C   0  0  0  0  0  0  0  0  0  0  0  0
    9.2609   -4.9858   16.3180 N   0  0  0  0  0  0  0  0  0  0  0  0
   10.3204   -3.0967   22.2630 C   0  0  0  0  0  0  0  0  0  0  0  0
    8.8044   -6.6015   18.0458 O   0  0  0  0  0  0  0  0  0  0  0  0
    7.8539   -7.2522   16.4143 P   0  0  0  0  0  0  0  0  0  0  0  0
    5.9392   -8.0298   18.3369 N   0  0  0  0  0  0  0  0  0  0  0  0
    1.2073   -7.6548   14.7441 C   0  0  0  0  0  0  0  0  0  0  0  0
    9.7996   -5.2597   16.7009 He  0  0  0  0  0  0  0  0  0  0  0  0
    6.3880   -7.5224   17.0627 He  0  0  0  0  0  0  0  0  0  0  0  0
   13.2775   -1.8512   21.9872 He  0  0  0  0  0  0  0  0  0  0  0  0
    9.5460   -7.8033   16.2592 He  0  0  0  0  0  0  0  0  0  0  0  0
   11.7099   -4.6943   23.0193 He  0  0  0  0  0  0  0  0  0  0  0  0
    4.8007   -8.6936   17.2209 He  0  0  0  0  0  0  0  0  0  0  0  0
    6.1789   -6.6516   18.7101 He  0  0  0  0  0  0  0  0  0  0  0  0
   10.3136   -4.2814   18.8628 He  0  0  0  0  0  0  0  0  0  0  0  0
    7.2315   -9.2546   18.1162 He  0  0  0  0  0  0  0  0  0  0  0  0
    3.7805   -6.5020   14.5897 He  0  0  0  0  0  0  0  0  0  0  0  0
  1  2  3  0
  1  3  4  0
  1  5  1  0
  1  6  3  0
  1  7  2  0
  1  8  2  0
  1  9  4  0
  1 10  1  0
  1 15  3  0
  1 18  3  0
  1 21  4  0
  1 23  2  0
  2  3  4  0
  2 13  2  0
  2 14  1  0
  2 16  2  0
  2 18  3  0
  2 23  2  0
  3  6  4  0
  3 14  3  0
  3 21  3  0
  3 22  3  0
  4  8  4  0
  4 11  2  0
  4 19  2  0
  4 21  3  0
  4 23  1  0
  5  7  3  0
  5 12  2  0
  5 13  2  0
  5 16  1  0
  5 17  1  0
  5 18  4  0
  5 21  3  0
  6  9  3  0
  6 16  2  0
  6 22  4  0
  7  9  4  0
  7 10  2  0
  7 13  3  0
  7 16  2  0
  7 19  3  0
  8 10  4  0
  8 11  4  0
  8 23  3  0
  9 14  3  0
  9 16  4  0
  9 18  3  0
 10 16  3  0
 10 20  2  0
 10 21  4  0
 10 24  3  0
 11 13  2  0
 11 14  2  0
 11 22  4  0
 11 24  4  0
 12 13  2  0
 12 18  2  0
 13 19  1  0
 14 17  4  0
 14 18  2  0
 15 22  1  0
 15 24  4  0
 16 17  4  0
 16 19  2  0
 17 18  2  0
 17 23  2  0
 18 19  3  0
 18 22  2  0
 19 22  2  0
 20 22  1  0
 21 22  1  0
 21 23  2  0
 22 23  1  0
 22 24  3  0
 23 24  3  0
M  END
$$$$

 Created by Python create_sdf_string function

 34 19  0  0  0  0  0  0  0  0999 V2000
    2.6909   -7.4427   15.2771 C   0  0  0  0  0  0  0  0  0  0  0  0
    9.8091   -5.1238   17.6320 C   0  0  0  0  0  0  0  0  0  0  0  0
    5.9053   -7.7085   16.9202 C   0  0  0  0  0  0  0  0  0  0  0  0
   11.5366   -4.7536   23.8777 C   0  0  0  0  0  0  0  0  0  0  0  0
   11.2495   -3.2960   21.4550 C   0  0  0  0  0  0  0  0  0  0  0  0
   11.1713   -3.4315   24.4036 C   0  0  0  0  0  0  0  0  0  0  0  0
    3.0591   -8.2295   16.3922 C   0  0  0  0  0  0  0  0  0  0  0  0
    7.9861   -8.2372   16.7298 C   0  0  0  0  0  0  0  0  0  0  0  0
   10.7150   -2.6185   23.4303 C   0  0  0  0  0  0  0  0  0  0  0  0
   10.9983   -4.9590   21.2365 C   0  0  0  0  0  0  0  0  0  0  0  0
    1.9762   -8.9588   16.5007 C   0  0  0  0  0  0  0  0  0  0  0  0
   10.5877   -4.8883   20.0260 C   0  0  0  0  0  0  0  0  0  0  0  0
    8.8612   -7.6214   16.5621 C   0  0  0  0  0  0  0  0  0  0  0  0
   11.4695   -5.0059   22.7216 C   0  0  0  0  0  0  0  0  0  0  0  0
    4.5838   -8.2608   17.1309 C   0  0  0  0  0  0  0  0  0  0  0  0
    7.7123   -8.4062   16.6856 C   0  0  0  0  0  0  0  0  0  0  0  0
    0.9205   -8.7542   15.6333 C   0  0  0  0  0  0  0  0  0  0  0  0
    6.2369   -7.4304   18.3125 C   0  0  0  0  0  0  0  0  0  0  0  0
   10.9000   -3.2441   17.4120 C   0  0  0  0  0  0  0  0  0  0  0  0
   11.0798   -2.9927   17.5320 C   0  0  0  0  0  0  0  0  0  0  0  0
   10.4811   -4.4359   18.8974 C   0  0  0  0  0  0  0  0  0  0  0  0
    5.7579   -6.9060   15.5610 C   0  0  0  0  0  0  0  0  0  0  0  0
    6.9038   -8.5428   17.8438 C   0  0  0  0  0  0  0  0  0  0  0  0
    2.0520   -6.7474   14.6689 C   0  0  0  0  0  0  0  0  0  0  0  0
    9.8201   -3.9227   16.0548 C   0  0  0  0  0  0  0  0  0  0  0  0
    6.1702   -6.3153   15.0551 O   0  0  0  0  0  0  0  0  0  0  0  0
    9.1748   -6.2380   16.7022 C   0  0  0  0  0  0  0  0  0  0  0  0
    9.4981   -4.7306   16.3447 N   0  0  0  0  0  0  0  0  0  0  0  0
    3.9816   -6.9850   15.3243 C   0  0  0  0  0  0  0  0  0  0  0  0
   10.5694   -2.9463   22.1523 C   0  0  0  0  0  0  0  0  0  0  0  0
    9.0461   -6.6369   18.1542 O   0  0  0  0  0  0  0  0  0  0  0  0
    7.9569   -7.0890   16.4334 C   0  0  0  0  0  0  0  0  0  0  0  0
    5.4490   -8.4360   17.9200 C   0  0  0  0  0  0  0  0  0  0  0  0
    1.0091   -7.6232   14.7857 C   0  0  0  0  0  0  0  0  0  0  0  0
  1  7  4  0
  1 24  4  0
  2 21  4  0
  4  6  4  0
  4 14  4  0
  6  9  4  0
  7 11  4  0
  7 15  4  0
  8 13  1  0
  9 30  4  0
 10 12  1  0
 10 14  4  0
 11 17  4  0
 12 21  1  0
 17 34  4  0
 19 20  4  0
 22 26  2  0
 24 34  4  0
 25 28  4  0
M  END
$$$$

 Created by Python create_sdf_string function

 34111  0  0  0  0  0  0  0  0999 V2000
    4.4625   -6.3771   15.2595 S   0  0  0  0  0  0  0  0  0  0  0  0
    5.8965   -7.3482   15.8268 C   0  0  0  0  0  0  0  0  0  0  0  0
   11.7473   -4.8464   23.9885 C   0  0  0  0  0  0  0  0  0  0  0  0
   10.3627   -2.4113   20.3914 Cl  0  0  0  0  0  0  0  0  0  0  0  0
   11.5200   -3.2997   23.8131 C   0  0  0  0  0  0  0  0  0  0  0  0
    3.3001   -8.0821   16.3964 C   0  0  0  0  0  0  0  0  0  0  0  0
    7.7419   -8.4207   16.3218 F   0  0  0  0  0  0  0  0  0  0  0  0
   10.7341   -2.5117   23.1328 C   0  0  0  0  0  0  0  0  0  0  0  0
   10.9646   -4.9339   20.5925 C   0  0  0  0  0  0  0  0  0  0  0  0
   10.2723   -5.2252   19.8310 C   0  0  0  0  0  0  0  0  0  0  0  0
   11.5875   -5.2204   22.5930 N   0  0  0  0  0  0  0  0  0  0  0  0
    4.1079   -6.2536   16.8934 P   0  0  0  0  0  0  0  0  0  0  0  0
    8.1229   -8.8540   18.1020 F   0  0  0  0  0  0  0  0  0  0  0  0
    0.6810   -8.4096   15.0984 C   0  0  0  0  0  0  0  0  0  0  0  0
    6.5201   -7.3163   18.1290 C   0  0  0  0  0  0  0  0  0  0  0  0
   11.2606   -3.5157   16.6605 C   0  0  0  0  0  0  0  0  0  0  0  0
   11.1127   -2.9340   17.2801 C   0  0  0  0  0  0  0  0  0  0  0  0
   10.8195   -4.5655   18.8432 B   0  0  0  0  0  0  0  0  0  0  0  0
    6.5136   -6.6162   15.9874 F   0  0  0  0  0  0  0  0  0  0  0  0
    2.2296   -6.4194   14.3650 F   0  0  0  0  0  0  0  0  0  0  0  0
    8.9866   -2.7766   15.9118 B   0  0  0  0  0  0  0  0  0  0  0  0
    6.4210   -6.2933   15.4596 O   0  0  0  0  0  0  0  0  0  0  0  0
    9.6915   -4.6002   17.2503 F   0  0  0  0  0  0  0  0  0  0  0  0
   10.0264   -5.2952   16.3772 F   0  0  0  0  0  0  0  0  0  0  0  0
    4.2249   -8.1998   14.9133 C   0  0  0  0  0  0  0  0  0  0  0  0
   10.3556   -2.0303   22.0759 C   0  0  0  0  0  0  0  0  0  0  0  0
    7.1385   -7.2756   16.2860 N   0  0  0  0  0  0  0  0  0  0  0  0
    1.1337   -8.0455   14.4329 C   0  0  0  0  0  0  0  0  0  0  0  0
    9.1648   -4.9254   16.1361 He  0  0  0  0  0  0  0  0  0  0  0  0
    2.2786   -9.0014   17.0820 He  0  0  0  0  0  0  0  0  0  0  0  0
    9.3708   -8.5071   17.4806 He  0  0  0  0  0  0  0  0  0  0  0  0
    7.4795  -10.4800   19.2863 He  0  0  0  0  0  0  0  0  0  0  0  0
    8.7667   -6.8257   17.5452 He  0  0  0  0  0  0  0  0  0  0  0  0
    3.2378   -8.6547   16.8936 He  0  0  0  0  0  0  0  0  0  0  0  0
  1  5  4  0
  1  7  2  0
  1  8  4  0
  1 11  2  0
  1 18  1  0
  1 23  4  0
  1 25  2  0
  1 26  3  0
  1 27  3  0
  2  4  1  0
  2  7  2  0
  2  9  2  0
  2 10  3  0
  2 15  1  0
  2 17  2  0
  2 19  1  0
  2 21  3  0
  2 22  3  0
  2 24  3  0
  2 26  1  0
  2 28  2  0
  3  5  4  0
  3 10  3  0
  3 11  1  0
  3 13  4  0
  3 15  2  0
  3 21  1  0
  3 27  2  0
  4  5  1  0
  4  8  4  0
  4 12  2  0
  4 15  3  0
  4 17  3  0
  4 21  3  0
  4 25  1  0
  4 26  2  0
  4 28  2  0
  5  8  4  0
  5 15  2  0
  5 19  3  0
  5 20  3  0
  5 21  2  0
  5 24  3  0
  6  9  1  0
  6 14  1  0
  6 19  3  0
  6 21  2  0
  6 23  2  0
  6 25  4  0
  6 27  1  0
  7  9  4  0
  7 12  4  0
  7 18  2  0
  7 27  1  0
  8 12  4  0
  8 13  1  0
  8 21  3  0
  8 22  1  0
  8 23  3  0
  8 26  4  0
  9 11  4  0
  9 13  3  0
  9 14  3  0
  9 15  2  0
  9 19  3  0
  9 24  1  0
  9 27  3  0
 10 13  3  0
 10 15  1  0
 10 18  1  0
 10 23  4  0
 10 25  2  0
 11 12  3  0
 11 13  2  0
 11 24  3  0
 11 25  4  0
 11 26  3  0
 12 17  1  0
 12 25  4  0
 13 20  4  0
 13 26  1  0
 13 27  4  0
 14 15  2  0
 14 17  1  0
 15 20  1  0
 15 22  2  0
 15 23  4  0
 16 17  4  0
 16 27  2  0
 17 21  4  0
 17 25  2  0
 17 28  2  0
 18 21  4  0
 18 24  3  0
 18 28  1  0
 19 20  1  0
 19 24  1  0
 19 28  1  0
 20 21  3  0
 20 23  3  0
 20 25  4  0
 20 28  4  0
 21 22  4  0
 21 23  1  0
 21 24  1  0
 21 28  2  0
 22 27  3  0
 23 27  4  0
 24 25  1  0
 25 28  1  0
 26 27  1  0
M  END
$$$$

 Created by Python create_sdf_string function

 34 27  0  0  0  0  0  0  0  0999 V2000
    4.4949   -6.7933   15.0584 C   0  0  0  0  0  0  0  0  0  0  0  0
    9.6862   -4.8996   16.8325 C   0  0  0  0  0  0  0  0  0  0  0  0
    5.9153   -7.3538   16.2080 C   0  0  0  0  0  0  0  0  0  0  0  0
   11.5985   -4.7135   23.6760 C   0  0  0  0  0  0  0  0  0  0  0  0
   10.6452   -3.5009   20.9044 C   0  0  0  0  0  0  0  0  0  0  0  0
   11.3041   -3.4534   23.9486 C   0  0  0  0  0  0  0  0  0  0  0  0
    3.0999   -8.4302   16.4233 C   0  0  0  0  0  0  0  0  0  0  0  0
    8.0894   -8.5635   16.1179 F   0  0  0  0  0  0  0  0  0  0  0  0
   10.8076   -2.5437   23.1544 C   0  0  0  0  0  0  0  0  0  0  0  0
   10.9263   -4.5360   21.2667 C   0  0  0  0  0  0  0  0  0  0  0  0
    2.1115   -9.1287   16.6185 C   0  0  0  0  0  0  0  0  0  0  0  0
   10.5700   -5.1968   19.8476 C   0  0  0  0  0  0  0  0  0  0  0  0
    9.0457   -8.0981   17.9644 F   0  0  0  0  0  0  0  0  0  0  0  0
   11.3273   -5.1382   22.3945 N   0  0  0  0  0  0  0  0  0  0  0  0
    4.7222   -7.6170   16.5316 C   0  0  0  0  0  0  0  0  0  0  0  0
    8.1098   -8.2527   17.9344 F   0  0  0  0  0  0  0  0  0  0  0  0
    0.9775   -8.8013   15.5219 C   0  0  0  0  0  0  0  0  0  0  0  0
    6.6584   -7.5650   18.1048 C   0  0  0  0  0  0  0  0  0  0  0  0
   11.2270   -3.2683   16.9285 C   0  0  0  0  0  0  0  0  0  0  0  0
   11.0871   -3.0738   17.4937 C   0  0  0  0  0  0  0  0  0  0  0  0
   10.6865   -4.4792   18.9127 C   0  0  0  0  0  0  0  0  0  0  0  0
    6.7141   -6.8382   15.9553 C   0  0  0  0  0  0  0  0  0  0  0  0
    7.3481   -8.6065   18.6961 F   0  0  0  0  0  0  0  0  0  0  0  0
    2.3730   -7.0944   14.4638 C   0  0  0  0  0  0  0  0  0  0  0  0
    9.5891   -3.6004   15.8046 C   0  0  0  0  0  0  0  0  0  0  0  0
    6.8368   -5.8169   15.2331 O   0  0  0  0  0  0  0  0  0  0  0  0
   10.0829   -4.9206   17.7085 C   0  0  0  0  0  0  0  0  0  0  0  0
    9.7483   -5.0491   16.4016 C   0  0  0  0  0  0  0  0  0  0  0  0
    3.3748   -7.5275   15.5021 C   0  0  0  0  0  0  0  0  0  0  0  0
   10.5858   -2.5513   22.0896 C   0  0  0  0  0  0  0  0  0  0  0  0
    9.0173   -6.8221   17.7105 C   0  0  0  0  0  0  0  0  0  0  0  0
    7.3282   -7.5531   16.3891 N   0  0  0  0  0  0  0  0  0  0  0  0
    3.9196   -8.7890   17.1714 N   0  0  0  0  0  0  0  0  0  0  0  0
    1.1922   -7.8640   14.6268 C   0  0  0  0  0  0  0  0  0  0  0  0
  1 29  4  0
  2 27  4  0
  2 28  4  0
  3 22  1  0
  4  6  4  0
  4 14  4  0
  5 10  4  0
  5 30  4  0
  6  9  4  0
  7 11  4  0
  7 29  4  0
  7 33  4  0
  8 32  1  0
  9 30  4  0
 10 12  4  0
 10 14  4  0
 11 17  4  0
 12 21  4  0
 13 16  1  0
 16 23  1  0
 17 34  4  0
 19 20  4  0
 21 27  4  0
 22 26  2  0
 22 32  1  0
 24 29  4  0
 24 34  4  0
M  END
$$$$

 Created by Python create_sdf_string function

 34 44  0  0  0  0  0  0  0  0999 V2000
   11.6545   -5.3436   23.6887 C   0  0  0  0  0  0  0  0  0  0  0  0
   11.2514   -3.4304   23.7212 O   0  0  0  0  0  0  0  0  0  0  0  0
    7.9207   -8.7052   16.1420 F   0  0  0  0  0  0  0  0  0  0  0  0
   10.4941   -2.3912   23.2426 N   0  0  0  0  0  0  0  0  0  0  0  0
   10.4603   -4.3084   21.3829 C   0  0  0  0  0  0  0  0  0  0  0  0
    2.0590   -9.7641   16.7135 F   0  0  0  0  0  0  0  0  0  0  0  0
   11.2134   -5.6061   22.1804 N   0  0  0  0  0  0  0  0  0  0  0  0
    0.9620   -8.2478   15.8328 C   0  0  0  0  0  0  0  0  0  0  0  0
   11.6472   -2.7092   16.9238 C   0  0  0  0  0  0  0  0  0  0  0  0
   11.2697   -3.2091   17.6555 C   0  0  0  0  0  0  0  0  0  0  0  0
   10.0697   -4.5187   19.0334 C   0  0  0  0  0  0  0  0  0  0  0  0
    8.6076   -7.3688   16.8808 O   0  0  0  0  0  0  0  0  0  0  0  0
    8.9003   -2.8616   14.5675 Se  0  0  0  0  0  0  0  0  0  0  0  0
    6.4710   -5.5491   15.3429 O   0  0  0  0  0  0  0  0  0  0  0  0
    9.8671   -5.4998   16.4043 S   0  0  0  0  0  0  0  0  0  0  0  0
    1.1084   -7.6011   15.4677 C   0  0  0  0  0  0  0  0  0  0  0  0
    8.8110   -6.0579   17.4524 C   0  0  0  0  0  0  0  0  0  0  0  0
    1.0833   -7.3689   15.0963 O   0  0  0  0  0  0  0  0  0  0  0  0
    4.9321   -4.9393   15.0569 He  0  0  0  0  0  0  0  0  0  0  0  0
    9.6579   -4.0668   16.7375 He  0  0  0  0  0  0  0  0  0  0  0  0
    5.8730   -7.9093   16.0733 He  0  0  0  0  0  0  0  0  0  0  0  0
    9.7448   -2.5930   22.4767 He  0  0  0  0  0  0  0  0  0  0  0  0
    3.2369   -8.1530   16.6457 He  0  0  0  0  0  0  0  0  0  0  0  0
   10.1422   -4.8082   20.2203 He  0  0  0  0  0  0  0  0  0  0  0  0
    7.3413   -8.2784   16.8236 He  0  0  0  0  0  0  0  0  0  0  0  0
    4.8398   -7.2958   15.3790 He  0  0  0  0  0  0  0  0  0  0  0  0
    9.3097   -9.4438   17.9188 He  0  0  0  0  0  0  0  0  0  0  0  0
    4.8010   -5.4871   19.1294 He  0  0  0  0  0  0  0  0  0  0  0  0
    7.2354   -8.4865   17.7127 He  0  0  0  0  0  0  0  0  0  0  0  0
    2.4697   -6.8898   14.2452 He  0  0  0  0  0  0  0  0  0  0  0  0
   11.1272   -4.5857   17.3077 He  0  0  0  0  0  0  0  0  0  0  0  0
   10.3115   -2.5246   22.9143 He  0  0  0  0  0  0  0  0  0  0  0  0
    8.7949   -6.6176   16.8095 He  0  0  0  0  0  0  0  0  0  0  0  0
    4.6835  -10.2233   15.8603 He  0  0  0  0  0  0  0  0  0  0  0  0
  1  2  4  0
  1  7  3  0
  1  8  2  0
  1 12  4  0
  2  4  4  0
  2  6  4  0
  2  7  1  0
  2 10  1  0
  2 16  3  0
  3  8  3  0
  3  9  1  0
  3 11  3  0
  3 12  1  0
  3 16  1  0
  3 18  2  0
  4 11  2  0
  4 13  1  0
  4 17  4  0
  5  7  2  0
  5 13  4  0
  6  7  2  0
  6  8  4  0
  6 13  3  0
  7 12  1  0
  7 13  3  0
  7 14  4  0
  7 15  3  0
  7 16  1  0
  8 11  3  0
  8 16  1  0
  8 18  4  0
  9 10  4  0
  9 12  2  0
  9 13  1  0
  9 16  3  0
 10 18  4  0
 11 13  1  0
 12 13  3  0
 12 14  1  0
 12 15  2  0
 12 17  2  0
 12 18  1  0
 13 14  1  0
 15 18  4  0
M  END
$$$$

 Created by Python create_sdf_string function

 34 22  0  0  0  0  0  0  0  0999 V2000
    5.3631   -6.6992   15.3128 C   0  0  0  0  0  0  0  0  0  0  0  0
   10.1844   -4.2742   17.3197 C   0  0  0  0  0  0  0  0  0  0  0  0
    5.6113   -7.9468   16.3268 C   0  0  0  0  0  0  0  0  0  0  0  0
   11.4402   -4.9505   23.4985 C   0  0  0  0  0  0  0  0  0  0  0  0
   10.2571   -3.0616   21.9031 C   0  0  0  0  0  0  0  0  0  0  0  0
   11.2033   -3.8196   24.0526 C   0  0  0  0  0  0  0  0  0  0  0  0
    3.2737   -8.4964   16.1453 C   0  0  0  0  0  0  0  0  0  0  0  0
    7.8651   -8.5448   15.9530 F   0  0  0  0  0  0  0  0  0  0  0  0
   10.3886   -2.5448   23.2223 N   0  0  0  0  0  0  0  0  0  0  0  0
   10.5136   -4.3027   21.3847 C   0  0  0  0  0  0  0  0  0  0  0  0
    2.1878   -9.1408   16.4810 C   0  0  0  0  0  0  0  0  0  0  0  0
   10.1963   -4.6344   20.1006 C   0  0  0  0  0  0  0  0  0  0  0  0
    6.9567   -8.2538   16.6725 C   0  0  0  0  0  0  0  0  0  0  0  0
   11.0887   -5.2709   22.1878 C   0  0  0  0  0  0  0  0  0  0  0  0
    4.9405   -7.4047   15.7363 C   0  0  0  0  0  0  0  0  0  0  0  0
    8.8561   -8.2909   17.7792 C   0  0  0  0  0  0  0  0  0  0  0  0
    1.0046   -8.7409   15.9959 C   0  0  0  0  0  0  0  0  0  0  0  0
    5.9649   -7.2368   18.3869 O   0  0  0  0  0  0  0  0  0  0  0  0
   11.4537   -2.8046   16.8464 C   0  0  0  0  0  0  0  0  0  0  0  0
   11.3468   -3.0479   17.6520 C   0  0  0  0  0  0  0  0  0  0  0  0
   10.2214   -4.5885   18.8830 C   0  0  0  0  0  0  0  0  0  0  0  0
    8.4016   -7.1982   16.9259 C   0  0  0  0  0  0  0  0  0  0  0  0
    6.9011   -8.2055   17.4415 C   0  0  0  0  0  0  0  0  0  0  0  0
    2.6030   -6.9426   14.8794 C   0  0  0  0  0  0  0  0  0  0  0  0
    9.8841   -3.4971   15.5375 C   0  0  0  0  0  0  0  0  0  0  0  0
    6.8518   -5.7181   15.3206 O   0  0  0  0  0  0  0  0  0  0  0  0
   10.5271   -4.0671   17.8017 C   0  0  0  0  0  0  0  0  0  0  0  0
    9.6315   -5.1803   16.5105 C   0  0  0  0  0  0  0  0  0  0  0  0
    1.5488   -7.3143   14.9180 C   0  0  0  0  0  0  0  0  0  0  0  0
   10.2554   -2.2364   23.2496 C   0  0  0  0  0  0  0  0  0  0  0  0
    8.9300   -6.1792   17.5848 C   0  0  0  0  0  0  0  0  0  0  0  0
    8.5727   -6.6423   16.9776 C   0  0  0  0  0  0  0  0  0  0  0  0
    4.6296   -9.0514   16.7244 C   0  0  0  0  0  0  0  0  0  0  0  0
    1.0049   -7.5782   15.1074 C   0  0  0  0  0  0  0  0  0  0  0  0
  1 15  1  0
  2 21  4  0
  2 28  4  0
  4  6  4  0
  4 14  4  0
  5  9  4  0
  5 10  4  0
  6  9  4  0
  7 11  4  0
  7 33  4  0
  8 13  1  0
  9 30  4  0
 10 12  1  0
 10 14  4  0
 11 17  4  0
 12 21  4  0
 17 34  4  0
 19 20  4  0
 19 25  4  0
 21 27  4  0
 24 29  4  0
 29 34  4  0
M  END
$$$$

 Created by Python create_sdf_string function

 34 72  0  0  0  0  0  0  0  0999 V2000
    5.8647   -5.9021   16.0429 C   0  0  0  0  0  0  0  0  0  0  0  0
    4.4702   -6.6951   17.0042 C   0  0  0  0  0  0  0  0  0  0  0  0
   10.9910   -4.0656   23.8989 C   0  0  0  0  0  0  0  0  0  0  0  0
   10.5409   -2.1348   21.6641 S   0  0  0  0  0  0  0  0  0  0  0  0
   11.0889   -4.0772   24.3339 C   0  0  0  0  0  0  0  0  0  0  0  0
    3.2844   -9.0283   15.9342 C   0  0  0  0  0  0  0  0  0  0  0  0
    8.0647   -7.9867   15.7516 F   0  0  0  0  0  0  0  0  0  0  0  0
   10.2922   -2.9329   23.4265 N   0  0  0  0  0  0  0  0  0  0  0  0
   10.0646   -4.4768   21.3897 N   0  0  0  0  0  0  0  0  0  0  0  0
    2.6197   -9.0105   16.6636 C   0  0  0  0  0  0  0  0  0  0  0  0
   10.2120   -4.2105   20.9613 Cl  0  0  0  0  0  0  0  0  0  0  0  0
   10.8299   -5.5983   22.8424 C   0  0  0  0  0  0  0  0  0  0  0  0
    1.4912   -8.5730   15.5252 S   0  0  0  0  0  0  0  0  0  0  0  0
   11.7037   -2.8578   16.9376 C   0  0  0  0  0  0  0  0  0  0  0  0
   11.6256   -2.9578   17.4628 N   0  0  0  0  0  0  0  0  0  0  0  0
    9.9803   -4.7384   18.8333 C   0  0  0  0  0  0  0  0  0  0  0  0
    7.2406   -7.2980   15.4014 C   0  0  0  0  0  0  0  0  0  0  0  0
    2.2802   -7.1513   15.2589 P   0  0  0  0  0  0  0  0  0  0  0  0
   10.4033   -5.6752   13.0902 C   0  0  0  0  0  0  0  0  0  0  0  0
    6.2601   -5.2910   15.7247 O   0  0  0  0  0  0  0  0  0  0  0  0
   10.1362   -2.6269   23.1466 C   0  0  0  0  0  0  0  0  0  0  0  0
    8.7346   -5.9350   17.7914 C   0  0  0  0  0  0  0  0  0  0  0  0
    8.4973   -6.0809   16.9811 C   0  0  0  0  0  0  0  0  0  0  0  0
    1.4504   -7.9842   14.5688 C   0  0  0  0  0  0  0  0  0  0  0  0
   11.3633   -5.0485   15.9845 He  0  0  0  0  0  0  0  0  0  0  0  0
    6.3566   -7.9501   15.9019 He  0  0  0  0  0  0  0  0  0  0  0  0
    4.7548   -7.7962   15.3675 He  0  0  0  0  0  0  0  0  0  0  0  0
   10.7688   -9.7898   18.7348 He  0  0  0  0  0  0  0  0  0  0  0  0
    5.6919   -7.8722   19.0236 He  0  0  0  0  0  0  0  0  0  0  0  0
    6.8638   -7.8262   17.8499 He  0  0  0  0  0  0  0  0  0  0  0  0
   10.4049   -3.3389   17.0182 He  0  0  0  0  0  0  0  0  0  0  0  0
    9.6868   -4.7214   16.2914 He  0  0  0  0  0  0  0  0  0  0  0  0
    1.0014   -6.9672   15.8224 He  0  0  0  0  0  0  0  0  0  0  0  0
    5.1425   -9.7926   17.5284 He  0  0  0  0  0  0  0  0  0  0  0  0
  1  2  4  0
  1  5  3  0
  1  7  2  0
  1 11  4  0
  1 13  2  0
  1 14  3  0
  1 15  3  0
  1 16  1  0
  1 19  2  0
  1 22  3  0
  2  6  1  0
  2  8  1  0
  2  9  3  0
  2 10  1  0
  2 11  2  0
  2 13  3  0
  2 14  1  0
  2 15  2  0
  2 18  2  0
  2 20  2  0
  2 22  3  0
  3  5  4  0
  3 10  3  0
  3 11  2  0
  3 12  4  0
  3 13  3  0
  3 20  2  0
  3 23  2  0
  4  8  1  0
  4  9  4  0
  4 11  1  0
  4 13  1  0
  4 14  4  0
  5  8  4  0
  5 16  3  0
  5 22  1  0
  6  9  2  0
  6 10  4  0
  6 11  2  0
  6 18  4  0
  6 19  1  0
  7 24  2  0
  8 11  1  0
  8 17  2  0
  8 20  4  0
  8 21  4  0
  8 22  3  0
  8 23  2  0
  9 11  1  0
  9 12  4  0
  9 13  4  0
  9 16  2  0
 10 11  3  0
 10 12  4  0
 10 13  4  0
 10 17  3  0
 11 19  3  0
 11 22  3  0
 12 20  2  0
 13 14  2  0
 13 17  1  0
 13 24  4  0
 14 15  1  0
 14 19  4  0
 14 23  2  0
 15 23  3  0
 15 24  2  0
 16 19  3  0
 17 24  2  0
 19 23  2  0
 20 22  2  0
 23 24  1  0
M  END
$$$$

 Created by Python create_sdf_string function

 34 24  0  0  0  0  0  0  0  0999 V2000
    6.4247   -6.8395   15.8093 C   0  0  0  0  0  0  0  0  0  0  0  0
   10.5527   -4.2121   16.5397 C   0  0  0  0  0  0  0  0  0  0  0  0
    5.1043   -7.5175   16.3400 C   0  0  0  0  0  0  0  0  0  0  0  0
   11.1458   -4.7188   23.8180 C   0  0  0  0  0  0  0  0  0  0  0  0
   10.2521   -2.9747   21.8733 C   0  0  0  0  0  0  0  0  0  0  0  0
   10.9569   -4.0175   24.5715 C   0  0  0  0  0  0  0  0  0  0  0  0
    3.3063   -8.2953   16.0328 C   0  0  0  0  0  0  0  0  0  0  0  0
    8.3355   -8.1772   15.7132 C   0  0  0  0  0  0  0  0  0  0  0  0
   10.3978   -2.7816   23.8032 N   0  0  0  0  0  0  0  0  0  0  0  0
   10.5429   -4.2846   21.3033 C   0  0  0  0  0  0  0  0  0  0  0  0
    2.3807   -9.3378   16.2142 C   0  0  0  0  0  0  0  0  0  0  0  0
   10.4406   -4.3017   20.4179 C   0  0  0  0  0  0  0  0  0  0  0  0
    6.4948   -7.9809   16.1856 C   0  0  0  0  0  0  0  0  0  0  0  0
   11.0182   -5.0076   22.5242 C   0  0  0  0  0  0  0  0  0  0  0  0
    4.9732   -8.2234   16.1503 C   0  0  0  0  0  0  0  0  0  0  0  0
    9.2564   -8.1255   18.3689 F   0  0  0  0  0  0  0  0  0  0  0  0
    1.2865   -9.1524   15.5468 C   0  0  0  0  0  0  0  0  0  0  0  0
    6.1769   -8.2916   18.3900 C   0  0  0  0  0  0  0  0  0  0  0  0
   11.7194   -2.8514   16.8575 C   0  0  0  0  0  0  0  0  0  0  0  0
   11.4587   -2.9086   17.7111 N   0  0  0  0  0  0  0  0  0  0  0  0
   10.0650   -4.6308   18.9800 C   0  0  0  0  0  0  0  0  0  0  0  0
    7.6111   -7.3907   15.8861 C   0  0  0  0  0  0  0  0  0  0  0  0
    7.0260   -8.0507   17.6289 C   0  0  0  0  0  0  0  0  0  0  0  0
    2.7490   -6.9737   15.4096 C   0  0  0  0  0  0  0  0  0  0  0  0
    9.8602   -5.3077   15.1776 C   0  0  0  0  0  0  0  0  0  0  0  0
    6.7241   -5.6216   15.3437 O   0  0  0  0  0  0  0  0  0  0  0  0
   10.4170   -4.2295   17.9534 C   0  0  0  0  0  0  0  0  0  0  0  0
    9.7659   -4.7772   16.3489 C   0  0  0  0  0  0  0  0  0  0  0  0
    1.7026   -7.0336   14.8068 C   0  0  0  0  0  0  0  0  0  0  0  0
   10.1708   -2.4051   23.1320 C   0  0  0  0  0  0  0  0  0  0  0  0
    8.8847   -6.1407   17.9276 C   0  0  0  0  0  0  0  0  0  0  0  0
    8.8990   -6.0964   17.1055 C   0  0  0  0  0  0  0  0  0  0  0  0
    5.2947   -9.1320   17.5532 C   0  0  0  0  0  0  0  0  0  0  0  0
    0.9011   -8.1315   14.8141 C   0  0  0  0  0  0  0  0  0  0  0  0
  1 13  1  0
  1 26  2  0
  2 28  4  0
  4  6  4  0
  4 14  4  0
  5 10  4  0
  5 30  4  0
  6  9  4  0
  7 11  4  0
  7 15  1  0
  7 24  4  0
  8 22  1  0
  9 30  4  0
 10 12  1  0
 10 14  4  0
 11 17  4  0
 12 21  1  0
 17 34  4  0
 18 23  1  0
 19 20  4  0
 21 27  4  0
 24 29  4  0
 29 34  4  0
 31 32  4  0
M  END
$$$$

 Created by Python create_sdf_string function

 34122  0  0  0  0  0  0  0  0999 V2000
    8.3098   -7.1845   15.9325 P   0  0  0  0  0  0  0  0  0  0  0  0
   10.2139   -5.9479   17.1215 P   0  0  0  0  0  0  0  0  0  0  0  0
   10.9550   -4.9103   24.1424 Cl  0  0  0  0  0  0  0  0  0  0  0  0
   10.8049   -2.2867   21.6139 P   0  0  0  0  0  0  0  0  0  0  0  0
   11.1806   -3.7052   24.5422 C   0  0  0  0  0  0  0  0  0  0  0  0
    2.9691   -8.3375   15.8595 C   0  0  0  0  0  0  0  0  0  0  0  0
    8.2820   -8.3721   15.6930 O   0  0  0  0  0  0  0  0  0  0  0  0
   10.5202   -2.8825   23.9309 C   0  0  0  0  0  0  0  0  0  0  0  0
   10.4393   -4.2116   21.1335 C   0  0  0  0  0  0  0  0  0  0  0  0
    2.3872   -9.4167   16.3057 C   0  0  0  0  0  0  0  0  0  0  0  0
   10.6541   -4.4655   20.2664 C   0  0  0  0  0  0  0  0  0  0  0  0
   10.7676   -4.5069   22.8067 C   0  0  0  0  0  0  0  0  0  0  0  0
    4.3198   -8.0901   17.1982 Cl  0  0  0  0  0  0  0  0  0  0  0  0
    8.6802   -8.0521   17.7905 N   0  0  0  0  0  0  0  0  0  0  0  0
    0.9973   -8.6255   15.4813 C   0  0  0  0  0  0  0  0  0  0  0  0
    5.1469   -8.9753   16.4345 S   0  0  0  0  0  0  0  0  0  0  0  0
   11.4955   -2.5907   16.4250 C   0  0  0  0  0  0  0  0  0  0  0  0
    9.8848   -3.9164   19.2721 C   0  0  0  0  0  0  0  0  0  0  0  0
    5.5895   -7.9962   16.0418 C   0  0  0  0  0  0  0  0  0  0  0  0
    5.8941   -7.9059   17.5244 F   0  0  0  0  0  0  0  0  0  0  0  0
    2.4467   -7.2200   15.6784 C   0  0  0  0  0  0  0  0  0  0  0  0
    8.6598   -6.0173   15.1709 C   0  0  0  0  0  0  0  0  0  0  0  0
    7.2184   -5.7201   15.5150 O   0  0  0  0  0  0  0  0  0  0  0  0
   10.2599   -4.7459   16.6708 C   0  0  0  0  0  0  0  0  0  0  0  0
    1.3786   -7.6708   14.1983 P   0  0  0  0  0  0  0  0  0  0  0  0
   10.3207   -2.6890   22.8558 F   0  0  0  0  0  0  0  0  0  0  0  0
    9.1350   -6.4713   18.1678 C   0  0  0  0  0  0  0  0  0  0  0  0
    0.9822   -7.9381   15.2703 C   0  0  0  0  0  0  0  0  0  0  0  0
    4.4926   -7.2950   17.0076 He  0  0  0  0  0  0  0  0  0  0  0  0
    7.2308   -7.5548   13.9465 He  0  0  0  0  0  0  0  0  0  0  0  0
   10.7938   -3.0262   17.4730 He  0  0  0  0  0  0  0  0  0  0  0  0
   11.4526   -4.3045   17.4548 He  0  0  0  0  0  0  0  0  0  0  0  0
    9.2629   -7.9193   18.7790 He  0  0  0  0  0  0  0  0  0  0  0  0
    5.1555   -9.6542   17.8267 He  0  0  0  0  0  0  0  0  0  0  0  0
  1  5  2  0
  1  6  2  0
  1  7  3  0
  1  8  1  0
  1  9  4  0
  1 10  3  0
  1 11  3  0
  1 15  3  0
  1 23  3  0
  1 25  1  0
  1 27  4  0
  2  5  1  0
  2  8  3  0
  2  9  1  0
  2 11  1  0
  2 13  3  0
  2 14  4  0
  2 19  3  0
  2 20  1  0
  2 23  2  0
  2 26  1  0
  2 27  1  0
  2 28  2  0
  3  5  4  0
  3  6  3  0
  3 12  4  0
  3 13  4  0
  3 14  4  0
  3 16  4  0
  3 20  1  0
  4 10  3  0
  4 12  2  0
  4 14  1  0
  4 15  1  0
  4 16  3  0
  4 17  1  0
  4 19  4  0
  4 20  2  0
  4 25  4  0
  5  8  4  0
  5 13  1  0
  5 26  1  0
  5 27  2  0
  6 10  2  0
  6 14  3  0
  6 16  2  0
  6 19  4  0
  6 27  4  0
  7  9  2  0
  7 14  4  0
  7 19  4  0
  7 20  2  0
  8 20  3  0
  8 24  2  0
  8 28  1  0
  9 12  4  0
  9 17  1  0
  9 20  4  0
  9 21  3  0
  9 22  3  0
  9 25  4  0
  9 28  2  0
 10 14  4  0
 10 15  4  0
 10 16  4  0
 10 19  1  0
 10 20  1  0
 10 21  4  0
 10 22  3  0
 11 13  1  0
 11 14  4  0
 11 18  1  0
 11 19  2  0
 11 27  2  0
 11 28  2  0
 12 15  3  0
 12 18  2  0
 12 20  4  0
 13 14  3  0
 13 16  2  0
 13 19  3  0
 13 21  4  0
 13 24  3  0
 14 15  3  0
 14 17  2  0
 14 20  4  0
 14 21  4  0
 14 22  2  0
 14 24  4  0
 14 26  4  0
 14 28  1  0
 15 19  4  0
 15 20  1  0
 15 22  1  0
 15 28  4  0
 16 19  4  0
 16 20  2  0
 16 22  1  0
 16 24  3  0
 16 28  2  0
 17 19  2  0
 17 20  3  0
 17 24  4  0
 18 20  2  0
 18 24  4  0
 18 26  1  0
 19 22  2  0
 19 25  3  0
 19 26  1  0
 19 27  2  0
 20 22  2  0
 20 25  3  0
 20 26  2  0
 20 27  3  0
 20 28  4  0
 21 27  4  0
 22 23  4  0
 22 24  4  0
 22 28  2  0
 23 25  1  0
 23 28  2  0
 25 26  4  0
M  END
$$$$

 Created by Python create_sdf_string function

 34 27  0  0  0  0  0  0  0  0999 V2000
    8.2719   -6.8273   16.2607 C   0  0  0  0  0  0  0  0  0  0  0  0
    9.8715   -5.4452   17.9637 C   0  0  0  0  0  0  0  0  0  0  0  0
    5.0000   -7.7623   17.0644 C   0  0  0  0  0  0  0  0  0  0  0  0
   11.1285   -4.7786   23.8606 C   0  0  0  0  0  0  0  0  0  0  0  0
   10.5983   -2.8969   21.4775 C   0  0  0  0  0  0  0  0  0  0  0  0
   10.8470   -3.7481   24.6157 C   0  0  0  0  0  0  0  0  0  0  0  0
    2.8850   -8.2625   16.0219 C   0  0  0  0  0  0  0  0  0  0  0  0
    8.3375   -8.3099   15.6438 O   0  0  0  0  0  0  0  0  0  0  0  0
   10.5023   -2.6585   24.1139 C   0  0  0  0  0  0  0  0  0  0  0  0
   10.7086   -4.2088   21.3943 C   0  0  0  0  0  0  0  0  0  0  0  0
    2.0510   -9.2437   16.3005 C   0  0  0  0  0  0  0  0  0  0  0  0
   10.5495   -4.7850   20.2306 C   0  0  0  0  0  0  0  0  0  0  0  0
    7.1225   -7.6244   15.1753 C   0  0  0  0  0  0  0  0  0  0  0  0
   11.0205   -4.8812   22.6175 C   0  0  0  0  0  0  0  0  0  0  0  0
    4.7568   -7.9196   17.0522 C   0  0  0  0  0  0  0  0  0  0  0  0
    8.3662   -8.0036   17.6516 N   0  0  0  0  0  0  0  0  0  0  0  0
    0.9318   -9.1083   15.6439 C   0  0  0  0  0  0  0  0  0  0  0  0
    5.3095   -8.9236   16.5226 C   0  0  0  0  0  0  0  0  0  0  0  0
   11.3641   -3.2413   16.4905 C   0  0  0  0  0  0  0  0  0  0  0  0
   11.2509   -3.1856   17.2945 C   0  0  0  0  0  0  0  0  0  0  0  0
   10.4480   -4.4173   19.0356 C   0  0  0  0  0  0  0  0  0  0  0  0
    5.8182   -8.1616   16.0161 C   0  0  0  0  0  0  0  0  0  0  0  0
    6.3372   -8.1938   17.5620 C   0  0  0  0  0  0  0  0  0  0  0  0
    2.6012   -7.1170   15.2709 C   0  0  0  0  0  0  0  0  0  0  0  0
    8.7690   -5.7431   16.2304 C   0  0  0  0  0  0  0  0  0  0  0  0
    7.2996   -5.4879   15.2524 O   0  0  0  0  0  0  0  0  0  0  0  0
   10.8881   -3.6636   17.8957 C   0  0  0  0  0  0  0  0  0  0  0  0
    9.9619   -4.4755   16.4071 C   0  0  0  0  0  0  0  0  0  0  0  0
    1.4187   -7.1739   14.6947 C   0  0  0  0  0  0  0  0  0  0  0  0
   10.3840   -2.3752   22.9642 C   0  0  0  0  0  0  0  0  0  0  0  0
    9.4394   -6.4756   18.0984 C   0  0  0  0  0  0  0  0  0  0  0  0
    9.2874   -7.5340   18.5021 C   0  0  0  0  0  0  0  0  0  0  0  0
    5.3462   -9.3613   17.8538 O   0  0  0  0  0  0  0  0  0  0  0  0
    0.6132   -8.1014   14.8759 C   0  0  0  0  0  0  0  0  0  0  0  0
  1 25  1  0
  2 21  4  0
  2 31  4  0
  3 15  4  0
  4  6  4  0
  4 14  4  0
  5 10  1  0
  5 30  4  0
  6  9  4  0
  7 11  4  0
  7 24  4  0
  8 13  1  0
  9 30  4  0
 10 12  1  0
 10 14  4  0
 11 17  4  0
 12 21  1  0
 17 34  4  0
 18 22  4  0
 19 20  4  0
 19 28  4  0
 20 27  4  0
 21 27  4  0
 24 29  4  0
 25 28  4  0
 29 34  4  0
 31 32  4  0
M  END
$$$$

 Created by Python create_sdf_string function

 34 67  0  0  0  0  0  0  0  0999 V2000
   10.9202   -6.5541   18.0540 N   0  0  0  0  0  0  0  0  0  0  0  0
    3.5270   -9.1895   16.5707 C   0  0  0  0  0  0  0  0  0  0  0  0
   11.5783   -5.4001   23.7294 C   0  0  0  0  0  0  0  0  0  0  0  0
    9.3783   -3.6463   21.2249 F   0  0  0  0  0  0  0  0  0  0  0  0
   11.4609   -3.6894   24.4049 C   0  0  0  0  0  0  0  0  0  0  0  0
    2.5156   -8.3586   16.3790 C   0  0  0  0  0  0  0  0  0  0  0  0
    9.0979   -8.0573   16.1176 O   0  0  0  0  0  0  0  0  0  0  0  0
   11.0312   -2.3621   24.0586 C   0  0  0  0  0  0  0  0  0  0  0  0
   11.0347   -3.9623   21.6857 C   0  0  0  0  0  0  0  0  0  0  0  0
    1.8583   -9.2744   16.0087 C   0  0  0  0  0  0  0  0  0  0  0  0
   10.3461   -4.8402   20.0670 Cl  0  0  0  0  0  0  0  0  0  0  0  0
   10.6027   -4.7743   22.4271 Cl  0  0  0  0  0  0  0  0  0  0  0  0
    1.1265   -9.5593   15.2488 C   0  0  0  0  0  0  0  0  0  0  0  0
    4.7376   -6.7042   15.9817 C   0  0  0  0  0  0  0  0  0  0  0  0
   11.1970   -3.2918   16.7190 C   0  0  0  0  0  0  0  0  0  0  0  0
   10.9119   -4.3963   19.1009 C   0  0  0  0  0  0  0  0  0  0  0  0
    7.3451   -5.5827   14.7294 O   0  0  0  0  0  0  0  0  0  0  0  0
    9.8460   -4.2805   16.7711 C   0  0  0  0  0  0  0  0  0  0  0  0
    9.4662   -6.6466   17.7575 C   0  0  0  0  0  0  0  0  0  0  0  0
    8.1021   -7.9694   18.2838 C   0  0  0  0  0  0  0  0  0  0  0  0
    5.6474   -7.9534   18.6968 S   0  0  0  0  0  0  0  0  0  0  0  0
    1.1403   -7.6223   14.9202 C   0  0  0  0  0  0  0  0  0  0  0  0
    8.4398   -7.7370   15.9045 He  0  0  0  0  0  0  0  0  0  0  0  0
    5.8476   -7.5372   14.3454 He  0  0  0  0  0  0  0  0  0  0  0  0
    4.2777   -7.2604   16.8248 He  0  0  0  0  0  0  0  0  0  0  0  0
   11.1553   -7.3823   18.4714 He  0  0  0  0  0  0  0  0  0  0  0  0
   10.7108   -3.2062   17.6963 He  0  0  0  0  0  0  0  0  0  0  0  0
    6.8728   -7.9049   17.6535 He  0  0  0  0  0  0  0  0  0  0  0  0
    6.6214   -7.8781   15.9365 He  0  0  0  0  0  0  0  0  0  0  0  0
    2.3888   -6.9641   15.2274 He  0  0  0  0  0  0  0  0  0  0  0  0
    8.6452   -5.9365   16.2982 He  0  0  0  0  0  0  0  0  0  0  0  0
   11.1238   -4.7880   16.9704 He  0  0  0  0  0  0  0  0  0  0  0  0
   -0.0524   -6.6616   15.7468 He  0  0  0  0  0  0  0  0  0  0  0  0
   10.6536   -2.8020   22.7821 He  0  0  0  0  0  0  0  0  0  0  0  0
  1  2  3  0
  1  4  4  0
  1  7  3  0
  1 12  4  0
  1 13  2  0
  1 15  2  0
  1 17  3  0
  1 18  4  0
  1 21  3  0
  2  4  2  0
  2  5  3  0
  2 11  1  0
  2 14  2  0
  2 15  1  0
  2 18  4  0
  2 22  1  0
  3  4  3  0
  3 10  2  0
  3 12  3  0
  3 20  2  0
  4  9  4  0
  4 12  3  0
  4 13  3  0
  4 14  1  0
  4 15  3  0
  4 18  3  0
  4 20  1  0
  5  9  3  0
  5 14  4  0
  5 16  1  0
  5 21  3  0
  5 22  3  0
  6 10  4  0
  6 21  4  0
  7 18  2  0
  8 18  4  0
  8 20  4  0
  9 11  4  0
  9 12  4  0
  9 14  3  0
  9 20  3  0
 10 13  4  0
 10 14  4  0
 11 15  1  0
 11 16  1  0
 11 20  3  0
 12 14  3  0
 12 20  3  0
 13 14  1  0
 13 16  3  0
 13 20  3  0
 13 22  4  0
 14 15  1  0
 14 16  2  0
 14 17  3  0
 14 18  1  0
 14 19  3  0
 14 20  1  0
 14 21  1  0
 15 18  4  0
 15 22  1  0
 16 20  1  0
 16 21  1  0
 17 20  1  0
 18 21  4  0
 18 22  3  0
 20 22  1  0
M  END
$$$$

 Created by Python create_sdf_string function

 34 24  0  0  0  0  0  0  0  0999 V2000
    8.1654   -7.3685   15.7337 C   0  0  0  0  0  0  0  0  0  0  0  0
   10.3574   -5.5862   18.1277 C   0  0  0  0  0  0  0  0  0  0  0  0
    4.2601   -8.4409   17.0394 C   0  0  0  0  0  0  0  0  0  0  0  0
   11.4684   -4.9854   23.7050 C   0  0  0  0  0  0  0  0  0  0  0  0
   10.4454   -3.5933   21.1562 C   0  0  0  0  0  0  0  0  0  0  0  0
   11.3515   -3.8533   24.4943 C   0  0  0  0  0  0  0  0  0  0  0  0
    2.6413   -8.2415   16.0641 C   0  0  0  0  0  0  0  0  0  0  0  0
    8.9622   -8.3565   16.0807 O   0  0  0  0  0  0  0  0  0  0  0  0
   10.9126   -2.7395   24.1076 C   0  0  0  0  0  0  0  0  0  0  0  0
   10.7954   -4.2315   21.5755 C   0  0  0  0  0  0  0  0  0  0  0  0
    1.8383   -9.3589   16.0901 C   0  0  0  0  0  0  0  0  0  0  0  0
   10.7515   -4.8453   20.0801 O   0  0  0  0  0  0  0  0  0  0  0  0
    5.9071   -7.3369   15.3490 C   0  0  0  0  0  0  0  0  0  0  0  0
   11.1269   -4.9436   22.4503 C   0  0  0  0  0  0  0  0  0  0  0  0
    4.5571   -7.9682   16.7552 C   0  0  0  0  0  0  0  0  0  0  0  0
   10.3542   -6.9230   18.6856 C   0  0  0  0  0  0  0  0  0  0  0  0
    0.7243   -9.2907   15.3515 C   0  0  0  0  0  0  0  0  0  0  0  0
    5.0032   -7.4263   16.0121 C   0  0  0  0  0  0  0  0  0  0  0  0
   10.9821   -3.3133   16.7766 C   0  0  0  0  0  0  0  0  0  0  0  0
   11.1655   -3.1757   17.8697 C   0  0  0  0  0  0  0  0  0  0  0  0
   10.8179   -4.4188   19.0274 C   0  0  0  0  0  0  0  0  0  0  0  0
    6.6481   -7.8711   17.3587 C   0  0  0  0  0  0  0  0  0  0  0  0
    6.7146   -7.5547   16.1518 C   0  0  0  0  0  0  0  0  0  0  0  0
    2.4701   -7.1041   15.4408 C   0  0  0  0  0  0  0  0  0  0  0  0
    8.4245   -6.4775   16.4481 C   0  0  0  0  0  0  0  0  0  0  0  0
    7.2632   -5.4989   15.1085 O   0  0  0  0  0  0  0  0  0  0  0  0
   10.3179   -5.0268   17.5728 C   0  0  0  0  0  0  0  0  0  0  0  0
    9.9687   -4.2834   16.3798 C   0  0  0  0  0  0  0  0  0  0  0  0
    1.1572   -7.0859   14.7806 C   0  0  0  0  0  0  0  0  0  0  0  0
   10.4445   -2.5468   22.9474 C   0  0  0  0  0  0  0  0  0  0  0  0
    9.5402   -6.7401   17.8463 C   0  0  0  0  0  0  0  0  0  0  0  0
    8.0975   -7.8452   17.8979 C   0  0  0  0  0  0  0  0  0  0  0  0
    5.8807   -8.1907   18.3530 O   0  0  0  0  0  0  0  0  0  0  0  0
    0.4485   -7.9238   14.8478 C   0  0  0  0  0  0  0  0  0  0  0  0
  1  8  1  0
  2 21  4  0
  2 27  4  0
  3 15  4  0
  4  6  4  0
  4 14  4  0
  5 10  1  0
  5 30  4  0
  6  9  4  0
  7 11  4  0
  7 24  4  0
  9 30  4  0
 10 12  1  0
 10 14  4  0
 11 17  4  0
 12 21  1  0
 13 23  1  0
 17 34  4  0
 19 20  4  0
 19 28  4  0
 20 21  4  0
 22 23  1  0
 24 29  4  0
 29 34  4  0
M  END
$$$$

 Created by Python create_sdf_string function

 34 67  0  0  0  0  0  0  0  0999 V2000
    7.9749   -7.9491   17.1141 C   0  0  0  0  0  0  0  0  0  0  0  0
   11.6977   -5.3420   23.4773 C   0  0  0  0  0  0  0  0  0  0  0  0
   11.1982   -4.0248   24.2166 C   0  0  0  0  0  0  0  0  0  0  0  0
    2.3112   -8.0637   16.4468 F   0  0  0  0  0  0  0  0  0  0  0  0
    8.7557   -8.2421   16.1141 O   0  0  0  0  0  0  0  0  0  0  0  0
   10.3991   -3.1048   24.0625 C   0  0  0  0  0  0  0  0  0  0  0  0
   11.1923   -4.0855   21.5722 C   0  0  0  0  0  0  0  0  0  0  0  0
    1.3577   -9.5313   15.9334 C   0  0  0  0  0  0  0  0  0  0  0  0
   10.6139   -4.2931   19.3644 O   0  0  0  0  0  0  0  0  0  0  0  0
    6.4286   -7.4173   16.1627 Cl  0  0  0  0  0  0  0  0  0  0  0  0
   10.9914   -4.2328   22.5421 C   0  0  0  0  0  0  0  0  0  0  0  0
   10.0135   -7.7405   18.8874 F   0  0  0  0  0  0  0  0  0  0  0  0
    0.3989   -8.7646   15.9613 C   0  0  0  0  0  0  0  0  0  0  0  0
    5.0946   -6.9514   16.3083 B   0  0  0  0  0  0  0  0  0  0  0  0
   11.3808   -3.4362   16.1901 Cl  0  0  0  0  0  0  0  0  0  0  0  0
   11.5724   -3.3589   17.5167 C   0  0  0  0  0  0  0  0  0  0  0  0
   10.3810   -4.4143   19.5045 C   0  0  0  0  0  0  0  0  0  0  0  0
    3.0236   -7.0271   15.2578 C   0  0  0  0  0  0  0  0  0  0  0  0
    7.7554   -5.2161   14.8654 O   0  0  0  0  0  0  0  0  0  0  0  0
   10.9348   -4.6313   16.5989 C   0  0  0  0  0  0  0  0  0  0  0  0
    9.6137   -4.7582   16.3482 C   0  0  0  0  0  0  0  0  0  0  0  0
    9.2071   -6.3964   17.9937 C   0  0  0  0  0  0  0  0  0  0  0  0
    8.3897   -7.8379   18.7089 S   0  0  0  0  0  0  0  0  0  0  0  0
   -0.1955   -7.8445   14.9387 N   0  0  0  0  0  0  0  0  0  0  0  0
   10.0494   -6.1585   19.3208 He  0  0  0  0  0  0  0  0  0  0  0  0
    3.0156   -8.8229   18.0999 He  0  0  0  0  0  0  0  0  0  0  0  0
    9.2269   -4.3324   21.0490 He  0  0  0  0  0  0  0  0  0  0  0  0
    4.0717   -6.4245   16.8550 He  0  0  0  0  0  0  0  0  0  0  0  0
    7.1923   -8.3005   18.2822 He  0  0  0  0  0  0  0  0  0  0  0  0
    5.6928   -8.7836   15.5474 He  0  0  0  0  0  0  0  0  0  0  0  0
    8.3190   -6.9199   16.4683 He  0  0  0  0  0  0  0  0  0  0  0  0
    1.0360   -7.2624   14.5983 He  0  0  0  0  0  0  0  0  0  0  0  0
   11.1249   -1.7473   22.7407 He  0  0  0  0  0  0  0  0  0  0  0  0
    5.6817   -7.7445   18.1886 He  0  0  0  0  0  0  0  0  0  0  0  0
  1  2  1  0
  1  5  4  0
  1  7  3  0
  1 23  3  0
  2  3  4  0
  2  8  1  0
  2 11  4  0
  2 12  3  0
  2 14  3  0
  2 18  2  0
  3  6  4  0
  3 10  2  0
  3 12  2  0
  3 15  2  0
  4  6  3  0
  4 12  2  0
  4 14  3  0
  4 17  2  0
  4 18  2  0
  5  6  2  0
  5 13  3  0
  5 20  2  0
  6 10  4  0
  6 11  2  0
  6 14  2  0
  6 22  3  0
  6 23  4  0
  7  9  4  0
  7 11  4  0
  7 23  2  0
  8 10  4  0
  8 20  1  0
  9 10  3  0
  9 15  2  0
  9 17  1  0
  9 20  2  0
  9 21  4  0
  9 23  4  0
 10 13  3  0
 10 18  4  0
 10 20  3  0
 11 12  2  0
 11 14  1  0
 11 16  3  0
 11 22  3  0
 12 15  1  0
 12 20  3  0
 12 23  4  0
 12 24  1  0
 13 18  4  0
 13 24  4  0
 14 16  1  0
 14 17  4  0
 14 19  1  0
 14 21  1  0
 14 22  1  0
 15 16  2  0
 16 17  4  0
 16 20  4  0
 16 21  4  0
 17 20  4  0
 18 23  2  0
 19 23  2  0
 20 22  4  0
 20 23  4  0
 20 24  2  0
 22 24  1  0
M  END
$$$$

 Created by Python create_sdf_string function

 34 23  0  0  0  0  0  0  0  0999 V2000
    8.1403   -7.3884   16.7044 C   0  0  0  0  0  0  0  0  0  0  0  0
   10.0082   -5.8997   18.9947 C   0  0  0  0  0  0  0  0  0  0  0  0
    3.6644   -8.9900   17.2080 C   0  0  0  0  0  0  0  0  0  0  0  0
   11.5035   -5.0804   23.6189 C   0  0  0  0  0  0  0  0  0  0  0  0
   10.7067   -3.3916   21.5763 C   0  0  0  0  0  0  0  0  0  0  0  0
   11.1240   -4.1287   24.4509 C   0  0  0  0  0  0  0  0  0  0  0  0
    2.4064   -8.4121   16.1335 C   0  0  0  0  0  0  0  0  0  0  0  0
    8.6812   -8.4524   16.0359 O   0  0  0  0  0  0  0  0  0  0  0  0
   10.6676   -2.9568   24.1749 C   0  0  0  0  0  0  0  0  0  0  0  0
   10.9258   -4.0267   21.5746 C   0  0  0  0  0  0  0  0  0  0  0  0
    1.3102   -9.1347   16.3444 C   0  0  0  0  0  0  0  0  0  0  0  0
   10.9544   -3.9997   19.6402 O   0  0  0  0  0  0  0  0  0  0  0  0
    6.3458   -7.5181   16.1270 C   0  0  0  0  0  0  0  0  0  0  0  0
   11.2433   -4.7148   22.2538 C   0  0  0  0  0  0  0  0  0  0  0  0
    4.1711   -7.9148   16.4046 C   0  0  0  0  0  0  0  0  0  0  0  0
    9.5118   -7.6744   18.5666 C   0  0  0  0  0  0  0  0  0  0  0  0
    0.3551   -8.4355   15.3952 C   0  0  0  0  0  0  0  0  0  0  0  0
    5.3961   -7.4763   16.2195 C   0  0  0  0  0  0  0  0  0  0  0  0
   11.4892   -3.2211   16.3325 Cl  0  0  0  0  0  0  0  0  0  0  0  0
   11.0641   -3.7020   17.4394 C   0  0  0  0  0  0  0  0  0  0  0  0
   10.6601   -4.4490   18.9243 C   0  0  0  0  0  0  0  0  0  0  0  0
    6.8266   -8.2661   17.8934 C   0  0  0  0  0  0  0  0  0  0  0  0
    5.5803   -8.2204   15.9447 C   0  0  0  0  0  0  0  0  0  0  0  0
    2.4269   -7.1418   15.2221 C   0  0  0  0  0  0  0  0  0  0  0  0
    8.1325   -6.2869   16.1266 C   0  0  0  0  0  0  0  0  0  0  0  0
    7.5454   -5.4005   15.1626 O   0  0  0  0  0  0  0  0  0  0  0  0
   10.4189   -4.3746   16.9372 C   0  0  0  0  0  0  0  0  0  0  0  0
    9.7194   -4.7630   16.4428 C   0  0  0  0  0  0  0  0  0  0  0  0
    1.1555   -7.2896   14.8988 C   0  0  0  0  0  0  0  0  0  0  0  0
   10.5599   -2.4362   22.9860 C   0  0  0  0  0  0  0  0  0  0  0  0
    9.4793   -6.2798   17.8995 C   0  0  0  0  0  0  0  0  0  0  0  0
    8.3569   -7.7415   18.0446 C   0  0  0  0  0  0  0  0  0  0  0  0
    5.5446   -8.1590   17.8950 C   0  0  0  0  0  0  0  0  0  0  0  0
   -0.3585   -8.1907   14.9394 N   0  0  0  0  0  0  0  0  0  0  0  0
  1  8  1  0
  1 25  1  0
  2 21  4  0
  2 31  4  0
  4  6  4  0
  4 14  4  0
  5 10  1  0
  5 30  4  0
  6  9  4  0
  7 11  4  0
  7 24  4  0
  9 30  4  0
 10 14  4  0
 11 17  4  0
 12 21  1  0
 17 29  4  0
 17 34  4  0
 19 20  1  0
 20 21  4  0
 20 27  4  0
 24 29  4  0
 25 26  2  0
 27 28  4  0
M  END
$$$$

 Created by Python create_sdf_string function

 34 71  0  0  0  0  0  0  0  0999 V2000
    9.5366   -5.8499   19.3036 C   0  0  0  0  0  0  0  0  0  0  0  0
   12.0278   -5.0623   23.6291 C   0  0  0  0  0  0  0  0  0  0  0  0
   11.0614   -4.3009   24.0798 C   0  0  0  0  0  0  0  0  0  0  0  0
    2.5398   -8.6700   16.9863 F   0  0  0  0  0  0  0  0  0  0  0  0
    8.6954   -8.5974   16.5954 O   0  0  0  0  0  0  0  0  0  0  0  0
   10.5390   -2.3790   24.0837 C   0  0  0  0  0  0  0  0  0  0  0  0
   11.1086   -4.1213   21.6263 I   0  0  0  0  0  0  0  0  0  0  0  0
    1.6565   -9.0666   16.4119 C   0  0  0  0  0  0  0  0  0  0  0  0
   11.1263   -3.6923   19.2130 O   0  0  0  0  0  0  0  0  0  0  0  0
    7.2548  -10.2229   15.4370 Cl  0  0  0  0  0  0  0  0  0  0  0  0
   11.5844   -4.9031   21.3279 C   0  0  0  0  0  0  0  0  0  0  0  0
    3.4072   -6.3793   16.8848 F   0  0  0  0  0  0  0  0  0  0  0  0
    5.6064   -8.8371   14.9098 S   0  0  0  0  0  0  0  0  0  0  0  0
   11.3634   -3.3995   16.0874 Cl  0  0  0  0  0  0  0  0  0  0  0  0
   10.8349   -3.5388   17.1776 F   0  0  0  0  0  0  0  0  0  0  0  0
   10.2761   -4.3261   18.3107 C   0  0  0  0  0  0  0  0  0  0  0  0
    2.4574   -7.9379   14.7244 C   0  0  0  0  0  0  0  0  0  0  0  0
    7.5883   -5.0132   15.2478 O   0  0  0  0  0  0  0  0  0  0  0  0
    8.6890   -4.7733   16.7113 C   0  0  0  0  0  0  0  0  0  0  0  0
   10.2081   -4.7454   16.5345 Br  0  0  0  0  0  0  0  0  0  0  0  0
    1.6612   -6.5446   14.0901 S   0  0  0  0  0  0  0  0  0  0  0  0
   10.1481   -2.1276   22.7945 C   0  0  0  0  0  0  0  0  0  0  0  0
    9.8415   -6.0293   17.9292 C   0  0  0  0  0  0  0  0  0  0  0  0
    9.4840   -7.5277   19.3302 C   0  0  0  0  0  0  0  0  0  0  0  0
   -0.6168   -8.7092   14.8468 P   0  0  0  0  0  0  0  0  0  0  0  0
    6.5127   -7.9789   17.6983 He  0  0  0  0  0  0  0  0  0  0  0  0
    3.7623   -8.1811   18.2386 He  0  0  0  0  0  0  0  0  0  0  0  0
    8.0148   -3.2229   21.6764 He  0  0  0  0  0  0  0  0  0  0  0  0
    9.6134   -8.4478   18.8077 He  0  0  0  0  0  0  0  0  0  0  0  0
    0.9049   -8.4924   15.5505 He  0  0  0  0  0  0  0  0  0  0  0  0
    8.7924   -8.4012   17.9405 He  0  0  0  0  0  0  0  0  0  0  0  0
    5.9250   -6.8351   16.5063 He  0  0  0  0  0  0  0  0  0  0  0  0
    8.2020   -5.4990   15.8513 He  0  0  0  0  0  0  0  0  0  0  0  0
    5.5284   -8.4007   16.8979 He  0  0  0  0  0  0  0  0  0  0  0  0
  1  4  4  0
  1  9  2  0
  1 10  2  0
  1 12  3  0
  1 13  3  0
  1 15  3  0
  1 16  2  0
  1 22  2  0
  1 25  4  0
  2 11  4  0
  2 17  2  0
  3  6  4  0
  3 14  3  0
  3 16  4  0
  3 21  2  0
  3 23  2  0
  3 25  3  0
  4  9  3  0
  4 15  1  0
  4 17  4  0
  4 21  4  0
  4 24  1  0
  5 12  4  0
  5 21  4  0
  5 22  3  0
  6 13  3  0
  6 17  4  0
  6 22  4  0
  6 23  2  0
  6 24  4  0
  7 11  4  0
  7 19  1  0
  8 10  1  0
  8 19  3  0
  8 25  2  0
  9 12  4  0
  9 13  3  0
  9 14  3  0
  9 15  1  0
  9 16  1  0
  9 24  3  0
 10 17  1  0
 10 18  4  0
 10 19  3  0
 10 20  1  0
 10 23  1  0
 10 25  2  0
 11 14  4  0
 11 25  4  0
 12 13  4  0
 12 14  2  0
 12 17  2  0
 12 18  1  0
 12 24  2  0
 13 18  1  0
 13 22  2  0
 14 18  2  0
 14 19  4  0
 14 24  3  0
 15 19  1  0
 15 20  4  0
 16 21  2  0
 16 23  3  0
 16 24  2  0
 16 25  1  0
 17 22  3  0
 18 20  1  0
 18 25  1  0
 19 21  1  0
 20 24  4  0
 24 25  1  0
M  END
$$$$

 Created by Python create_sdf_string function

 34 24  0  0  0  0  0  0  0  0999 V2000
    6.6030   -8.0100   17.4642 C   0  0  0  0  0  0  0  0  0  0  0  0
   10.0224   -5.5806   19.1321 C   0  0  0  0  0  0  0  0  0  0  0  0
    4.0362   -8.7008   17.2268 C   0  0  0  0  0  0  0  0  0  0  0  0
   11.6361   -4.9509   23.3503 C   0  0  0  0  0  0  0  0  0  0  0  0
   10.3207   -3.3785   20.9126 C   0  0  0  0  0  0  0  0  0  0  0  0
   11.2216   -4.0529   24.1881 C   0  0  0  0  0  0  0  0  0  0  0  0
    2.7379   -8.5481   16.4870 C   0  0  0  0  0  0  0  0  0  0  0  0
    8.6264   -8.6933   16.3837 O   0  0  0  0  0  0  0  0  0  0  0  0
   10.5695   -2.9442   23.9610 C   0  0  0  0  0  0  0  0  0  0  0  0
   10.7394   -3.8037   21.5435 C   0  0  0  0  0  0  0  0  0  0  0  0
    1.4580   -9.0779   16.4815 C   0  0  0  0  0  0  0  0  0  0  0  0
   11.0261   -3.5984   19.4704 O   0  0  0  0  0  0  0  0  0  0  0  0
    6.9672   -9.0101   15.7915 C   0  0  0  0  0  0  0  0  0  0  0  0
   11.4044   -4.8335   21.9472 C   0  0  0  0  0  0  0  0  0  0  0  0
    4.1770   -7.6239   16.1726 C   0  0  0  0  0  0  0  0  0  0  0  0
    9.1892   -7.9907   18.3936 C   0  0  0  0  0  0  0  0  0  0  0  0
    0.5937   -8.7146   15.5405 C   0  0  0  0  0  0  0  0  0  0  0  0
    5.5869   -8.6288   15.6952 C   0  0  0  0  0  0  0  0  0  0  0  0
   11.4042   -3.2505   16.0965 C   0  0  0  0  0  0  0  0  0  0  0  0
   10.7776   -3.8066   17.1989 C   0  0  0  0  0  0  0  0  0  0  0  0
   10.5089   -4.3636   18.6921 C   0  0  0  0  0  0  0  0  0  0  0  0
    8.3809   -7.8580   17.5120 C   0  0  0  0  0  0  0  0  0  0  0  0
    6.1616   -7.2831   16.4410 C   0  0  0  0  0  0  0  0  0  0  0  0
    2.4747   -7.4716   15.0303 C   0  0  0  0  0  0  0  0  0  0  0  0
    8.0967   -5.9050   16.2236 C   0  0  0  0  0  0  0  0  0  0  0  0
    7.4870   -5.2538   15.3368 O   0  0  0  0  0  0  0  0  0  0  0  0
    9.1177   -5.3757   16.7729 C   0  0  0  0  0  0  0  0  0  0  0  0
    9.9590   -4.2892   16.3629 C   0  0  0  0  0  0  0  0  0  0  0  0
    1.4654   -7.4924   14.4639 C   0  0  0  0  0  0  0  0  0  0  0  0
   10.2034   -2.5702   22.7870 C   0  0  0  0  0  0  0  0  0  0  0  0
    9.6527   -6.0940   18.1497 C   0  0  0  0  0  0  0  0  0  0  0  0
    9.5608   -7.0070   18.8124 C   0  0  0  0  0  0  0  0  0  0  0  0
    5.7298   -8.1242   16.7510 C   0  0  0  0  0  0  0  0  0  0  0  0
   -0.0821   -8.5779   15.0004 C   0  0  0  0  0  0  0  0  0  0  0  0
  2 21  4  0
  2 31  4  0
  3  7  1  0
  4  6  4  0
  4 14  4  0
  5 10  1  0
  6  9  4  0
  7 11  4  0
  7 24  4  0
  9 30  4  0
 10 14  4  0
 10 30  4  0
 11 17  4  0
 12 21  1  0
 13 18  4  0
 17 34  4  0
 19 20  1  0
 20 21  4  0
 20 28  4  0
 24 29  4  0
 25 26  2  0
 25 27  4  0
 27 28  4  0
 27 31  4  0
M  END
$$$$

 Created by Python create_sdf_string function

 34 61  0  0  0  0  0  0  0  0999 V2000
    2.8644   -9.0627   16.6450 B   0  0  0  0  0  0  0  0  0  0  0  0
   11.7647   -4.7031   23.1747 C   0  0  0  0  0  0  0  0  0  0  0  0
    3.0161   -8.5170   16.1787 C   0  0  0  0  0  0  0  0  0  0  0  0
    8.6658   -9.0366   16.2185 O   0  0  0  0  0  0  0  0  0  0  0  0
   10.3599   -3.3632   23.8265 O   0  0  0  0  0  0  0  0  0  0  0  0
   10.5465   -3.4131   21.5947 C   0  0  0  0  0  0  0  0  0  0  0  0
    1.5666   -8.6945   16.3791 C   0  0  0  0  0  0  0  0  0  0  0  0
   11.1744   -3.6733   19.4934 O   0  0  0  0  0  0  0  0  0  0  0  0
   11.5628   -4.6143   22.2265 C   0  0  0  0  0  0  0  0  0  0  0  0
    9.5268   -7.2393   17.9295 C   0  0  0  0  0  0  0  0  0  0  0  0
    0.7398   -8.5721   15.2091 C   0  0  0  0  0  0  0  0  0  0  0  0
    6.6296   -7.4978   16.9682 Se  0  0  0  0  0  0  0  0  0  0  0  0
   11.2629   -3.3641   15.6646 C   0  0  0  0  0  0  0  0  0  0  0  0
   11.0491   -2.9969   16.8309 C   0  0  0  0  0  0  0  0  0  0  0  0
   10.4913   -4.1346   18.8427 C   0  0  0  0  0  0  0  0  0  0  0  0
    2.3453   -7.6861   14.4903 P   0  0  0  0  0  0  0  0  0  0  0  0
    6.9622   -5.9755   15.3342 F   0  0  0  0  0  0  0  0  0  0  0  0
    7.4428   -5.8948   15.9586 F   0  0  0  0  0  0  0  0  0  0  0  0
   10.2036   -6.5560   16.3987 C   0  0  0  0  0  0  0  0  0  0  0  0
    9.7218   -3.6774   16.1581 C   0  0  0  0  0  0  0  0  0  0  0  0
    1.2759   -6.1637   14.0709 F   0  0  0  0  0  0  0  0  0  0  0  0
   10.1109   -2.1553   23.4296 C   0  0  0  0  0  0  0  0  0  0  0  0
    9.8151   -6.4469   17.9327 C   0  0  0  0  0  0  0  0  0  0  0  0
    5.5713   -8.1676   17.7043 He  0  0  0  0  0  0  0  0  0  0  0  0
    8.8100   -3.9094   19.6737 He  0  0  0  0  0  0  0  0  0  0  0  0
    9.5055   -3.3713   22.5382 He  0  0  0  0  0  0  0  0  0  0  0  0
   11.1423   -3.5550   24.2105 He  0  0  0  0  0  0  0  0  0  0  0  0
    5.5925   -8.8278   16.3517 He  0  0  0  0  0  0  0  0  0  0  0  0
    3.2418   -7.1342   16.4750 He  0  0  0  0  0  0  0  0  0  0  0  0
    7.5594   -7.0232   17.5951 He  0  0  0  0  0  0  0  0  0  0  0  0
    6.3389   -6.7828   16.2347 He  0  0  0  0  0  0  0  0  0  0  0  0
    8.5943   -7.7976   18.8769 He  0  0  0  0  0  0  0  0  0  0  0  0
    5.4418   -8.0850   18.2451 He  0  0  0  0  0  0  0  0  0  0  0  0
    0.1288   -7.9233   15.2971 He  0  0  0  0  0  0  0  0  0  0  0  0
  1  5  3  0
  1  7  3  0
  1 10  3  0
  1 14  1  0
  1 16  2  0
  1 18  3  0
  1 20  1  0
  1 21  1  0
  2  9  4  0
  2 13  1  0
  2 21  2  0
  3  7  4  0
  3 16  4  0
  3 21  3  0
  4 10  4  0
  5 10  1  0
  5 12  2  0
  5 19  2  0
  5 22  4  0
  6  9  4  0
  6 10  1  0
  6 18  3  0
  6 21  2  0
  6 22  4  0
  6 23  2  0
  7 11  4  0
  7 15  1  0
  7 17  3  0
  7 18  2  0
  7 21  3  0
  8 10  1  0
  8 15  2  0
  8 17  1  0
  9 12  2  0
  9 15  4  0
  9 22  2  0
 10 12  1  0
 10 14  1  0
 10 18  4  0
 12 13  4  0
 12 15  1  0
 13 14  1  0
 13 20  2  0
 13 21  1  0
 14 15  4  0
 14 17  4  0
 14 19  2  0
 14 20  4  0
 15 20  3  0
 16 18  1  0
 17 18  1  0
 17 19  1  0
 17 21  2  0
 17 22  4  0
 17 23  4  0
 18 19  4  0
 18 21  1  0
 19 22  1  0
 21 22  4  0
 21 23  1  0
 22 23  3  0
M  END
$$$$

 Created by Python create_sdf_string function

 34 26  0  0  0  0  0  0  0  0999 V2000
    5.5559   -8.4671   17.6987 C   0  0  0  0  0  0  0  0  0  0  0  0
    9.7068   -4.3781   19.6543 C   0  0  0  0  0  0  0  0  0  0  0  0
    3.7275   -9.0529   16.9676 C   0  0  0  0  0  0  0  0  0  0  0  0
   11.6680   -4.7144   23.4383 C   0  0  0  0  0  0  0  0  0  0  0  0
   10.0073   -3.0564   21.8141 C   0  0  0  0  0  0  0  0  0  0  0  0
   11.1509   -3.9332   24.3066 C   0  0  0  0  0  0  0  0  0  0  0  0
    2.6268   -8.3910   15.9522 C   0  0  0  0  0  0  0  0  0  0  0  0
    8.8108   -8.7060   16.3471 O   0  0  0  0  0  0  0  0  0  0  0  0
   10.5257   -3.0349   24.1899 C   0  0  0  0  0  0  0  0  0  0  0  0
   10.5319   -3.4351   21.7761 C   0  0  0  0  0  0  0  0  0  0  0  0
    1.5141   -9.0731   16.2360 C   0  0  0  0  0  0  0  0  0  0  0  0
   11.0237   -3.5777   19.5729 O   0  0  0  0  0  0  0  0  0  0  0  0
    5.3946   -8.5636   16.4336 C   0  0  0  0  0  0  0  0  0  0  0  0
   11.4271   -4.5712   22.1559 C   0  0  0  0  0  0  0  0  0  0  0  0
    4.2692   -8.0371   16.1089 C   0  0  0  0  0  0  0  0  0  0  0  0
    9.1965   -6.9444   17.8763 C   0  0  0  0  0  0  0  0  0  0  0  0
    0.3564   -8.6852   15.6290 C   0  0  0  0  0  0  0  0  0  0  0  0
    6.9188   -7.7450   16.6574 C   0  0  0  0  0  0  0  0  0  0  0  0
   11.2240   -3.4359   16.0597 C   0  0  0  0  0  0  0  0  0  0  0  0
   10.7767   -3.6956   17.1716 C   0  0  0  0  0  0  0  0  0  0  0  0
   10.4733   -4.1525   18.4354 C   0  0  0  0  0  0  0  0  0  0  0  0
    7.9675   -7.6201   17.3467 C   0  0  0  0  0  0  0  0  0  0  0  0
    6.2637   -7.0620   15.9307 C   0  0  0  0  0  0  0  0  0  0  0  0
    2.4779   -7.2400   14.8360 C   0  0  0  0  0  0  0  0  0  0  0  0
    7.3371   -5.9681   15.6336 C   0  0  0  0  0  0  0  0  0  0  0  0
    7.8032   -5.8210   15.8283 C   0  0  0  0  0  0  0  0  0  0  0  0
    9.2621   -5.5065   16.8867 C   0  0  0  0  0  0  0  0  0  0  0  0
    9.7503   -3.8985   16.1979 C   0  0  0  0  0  0  0  0  0  0  0  0
    1.2703   -7.0648   14.3339 C   0  0  0  0  0  0  0  0  0  0  0  0
   10.0000   -2.4496   23.2539 C   0  0  0  0  0  0  0  0  0  0  0  0
    9.7889   -6.1510   17.9557 C   0  0  0  0  0  0  0  0  0  0  0  0
    8.8918   -7.7285   18.4830 C   0  0  0  0  0  0  0  0  0  0  0  0
    5.7161   -8.4421   18.0814 C   0  0  0  0  0  0  0  0  0  0  0  0
    0.1477   -7.7809   14.8006 C   0  0  0  0  0  0  0  0  0  0  0  0
  1 33  4  0
  2 21  1  0
  3  7  1  0
  4  6  4  0
  4 14  4  0
  5 10  1  0
  6  9  4  0
  7 11  4  0
  7 24  4  0
  9 30  4  0
 10 14  4  0
 10 30  4  0
 11 17  4  0
 12 21  1  0
 16 31  4  0
 17 34  4  0
 18 22  4  0
 18 23  4  0
 19 20  1  0
 20 21  4  0
 20 28  4  0
 24 29  4  0
 25 26  1  0
 26 27  4  0
 27 31  4  0
 29 34  4  0
M  END
$$$$

 Created by Python create_sdf_string function

 34 60  0  0  0  0  0  0  0  0999 V2000
   10.5815   -4.3510   21.4984 C   0  0  0  0  0  0  0  0  0  0  0  0
   11.3236   -4.4092   23.9330 C   0  0  0  0  0  0  0  0  0  0  0  0
    9.4999   -2.2500   22.4919 N   0  0  0  0  0  0  0  0  0  0  0  0
   10.8627   -3.4351   23.9036 C   0  0  0  0  0  0  0  0  0  0  0  0
    2.5149   -8.5716   15.9039 C   0  0  0  0  0  0  0  0  0  0  0  0
   10.2945   -3.2526   23.7042 C   0  0  0  0  0  0  0  0  0  0  0  0
   10.0533   -3.5334   22.5618 F   0  0  0  0  0  0  0  0  0  0  0  0
    1.6839   -9.6492   16.2809 C   0  0  0  0  0  0  0  0  0  0  0  0
    0.4223   -9.0155   15.6231 C   0  0  0  0  0  0  0  0  0  0  0  0
   11.2577   -3.2507   16.2719 C   0  0  0  0  0  0  0  0  0  0  0  0
   10.4658   -3.2224   17.0323 C   0  0  0  0  0  0  0  0  0  0  0  0
    8.4111   -6.9954   18.0219 C   0  0  0  0  0  0  0  0  0  0  0  0
    5.7396   -6.6605   16.1405 S   0  0  0  0  0  0  0  0  0  0  0  0
    2.6874   -7.4823   14.6508 N   0  0  0  0  0  0  0  0  0  0  0  0
    9.9222   -4.1755   16.2654 C   0  0  0  0  0  0  0  0  0  0  0  0
    1.5654   -9.2728   14.3671 S   0  0  0  0  0  0  0  0  0  0  0  0
    9.7736   -2.3147   23.5296 S   0  0  0  0  0  0  0  0  0  0  0  0
   10.0047   -6.3056   18.0201 C   0  0  0  0  0  0  0  0  0  0  0  0
    5.2490   -8.1768   19.8623 O   0  0  0  0  0  0  0  0  0  0  0  0
   -0.2491   -8.1193   14.7690 C   0  0  0  0  0  0  0  0  0  0  0  0
    5.9587   -9.1755   17.5871 He  0  0  0  0  0  0  0  0  0  0  0  0
    4.0271   -9.2236   17.2647 He  0  0  0  0  0  0  0  0  0  0  0  0
    8.4027   -8.6141   16.5879 He  0  0  0  0  0  0  0  0  0  0  0  0
   11.4281   -2.9758   20.0502 He  0  0  0  0  0  0  0  0  0  0  0  0
    5.8845   -8.9284   14.5572 He  0  0  0  0  0  0  0  0  0  0  0  0
   11.2314   -4.0438   22.3675 He  0  0  0  0  0  0  0  0  0  0  0  0
    3.8176   -7.9903   16.1293 He  0  0  0  0  0  0  0  0  0  0  0  0
   10.2980   -5.9746   16.9028 He  0  0  0  0  0  0  0  0  0  0  0  0
    7.6223   -5.5762   16.5613 He  0  0  0  0  0  0  0  0  0  0  0  0
   10.5041   -4.0536   18.3183 He  0  0  0  0  0  0  0  0  0  0  0  0
    7.8332   -6.5974   15.8464 He  0  0  0  0  0  0  0  0  0  0  0  0
    7.5891   -5.8689   15.7387 He  0  0  0  0  0  0  0  0  0  0  0  0
   10.9747   -5.7797   18.9944 He  0  0  0  0  0  0  0  0  0  0  0  0
    7.3717   -9.0380   18.5174 He  0  0  0  0  0  0  0  0  0  0  0  0
  1  4  1  0
  1  5  2  0
  1  6  2  0
  1 12  2  0
  1 13  2  0
  1 14  1  0
  1 15  4  0
  1 16  3  0
  1 20  3  0
  2  4  1  0
  2  8  1  0
  2 10  3  0
  2 14  3  0
  3 14  2  0
  3 16  1  0
  3 19  2  0
  3 20  4  0
  4 13  4  0
  4 19  4  0
  5  8  4  0
  5  9  1  0
  5 13  4  0
  5 14  4  0
  5 15  2  0
  5 17  3  0
  5 19  3  0
  6  8  1  0
  6 16  3  0
  6 17  4  0
  6 19  1  0
  7 13  4  0
  7 19  4  0
  7 20  1  0
  8  9  4  0
  8 12  3  0
  8 13  1  0
  8 14  4  0
  9 12  1  0
  9 13  2  0
  9 17  4  0
  9 19  2  0
  9 20  4  0
 10 11  2  0
 10 17  3  0
 11 13  3  0
 11 14  3  0
 11 15  4  0
 11 16  1  0
 12 17  3  0
 12 18  2  0
 12 20  3  0
 13 16  2  0
 14 16  4  0
 14 17  1  0
 14 19  2  0
 14 20  4  0
 16 18  4  0
 16 20  1  0
 17 20  2  0
 18 19  4  0
M  END
$$$$

 Created by Python create_sdf_string function

 34 29  0  0  0  0  0  0  0  0999 V2000
    5.9986   -8.6973   17.3632 C   0  0  0  0  0  0  0  0  0  0  0  0
   10.7327   -4.2166   20.7710 C   0  0  0  0  0  0  0  0  0  0  0  0
    3.9787   -8.7439   16.7715 C   0  0  0  0  0  0  0  0  0  0  0  0
   11.4391   -4.6223   24.0302 C   0  0  0  0  0  0  0  0  0  0  0  0
   10.1054   -2.5877   22.4642 N   0  0  0  0  0  0  0  0  0  0  0  0
   10.9860   -3.7538   24.6349 C   0  0  0  0  0  0  0  0  0  0  0  0
    2.4867   -8.6853   15.8924 C   0  0  0  0  0  0  0  0  0  0  0  0
    8.3027   -8.4712   16.6691 C   0  0  0  0  0  0  0  0  0  0  0  0
   10.3032   -2.7881   24.3070 C   0  0  0  0  0  0  0  0  0  0  0  0
   10.6238   -3.6466   22.1301 C   0  0  0  0  0  0  0  0  0  0  0  0
    1.4648   -9.4283   16.3914 C   0  0  0  0  0  0  0  0  0  0  0  0
   10.9953   -3.3254   19.6007 N   0  0  0  0  0  0  0  0  0  0  0  0
    5.9333   -8.6456   15.6132 C   0  0  0  0  0  0  0  0  0  0  0  0
   11.2220   -4.5679   22.7110 C   0  0  0  0  0  0  0  0  0  0  0  0
    4.2843   -8.1905   16.5076 C   0  0  0  0  0  0  0  0  0  0  0  0
    9.2318   -5.5602   16.9396 C   0  0  0  0  0  0  0  0  0  0  0  0
    0.3465   -9.3566   15.6500 C   0  0  0  0  0  0  0  0  0  0  0  0
    8.1962   -6.0551   16.4492 C   0  0  0  0  0  0  0  0  0  0  0  0
   11.3131   -3.0907   16.6884 C   0  0  0  0  0  0  0  0  0  0  0  0
   10.8242   -3.6806   17.2074 C   0  0  0  0  0  0  0  0  0  0  0  0
   10.7079   -4.1414   18.4792 C   0  0  0  0  0  0  0  0  0  0  0  0
    8.4129   -7.2901   17.6350 C   0  0  0  0  0  0  0  0  0  0  0  0
    6.0122   -7.0524   15.8985 C   0  0  0  0  0  0  0  0  0  0  0  0
    2.4026   -7.8959   14.7790 C   0  0  0  0  0  0  0  0  0  0  0  0
    7.5189   -7.1192   16.0867 C   0  0  0  0  0  0  0  0  0  0  0  0
    7.4798   -5.6058   15.5119 O   0  0  0  0  0  0  0  0  0  0  0  0
   10.4081   -5.5389   19.3081 C   0  0  0  0  0  0  0  0  0  0  0  0
    9.8640   -4.2658   16.2165 C   0  0  0  0  0  0  0  0  0  0  0  0
    1.3107   -7.8462   14.2424 C   0  0  0  0  0  0  0  0  0  0  0  0
    9.8617   -2.1495   23.8372 C   0  0  0  0  0  0  0  0  0  0  0  0
    9.9565   -5.8248   18.2606 C   0  0  0  0  0  0  0  0  0  0  0  0
    7.0491   -8.4741   17.8249 C   0  0  0  0  0  0  0  0  0  0  0  0
    5.6866   -8.6134   18.6492 O   0  0  0  0  0  0  0  0  0  0  0  0
    0.2063   -8.5749   14.5755 C   0  0  0  0  0  0  0  0  0  0  0  0
  2 10  1  0
  2 12  1  0
  3  7  1  0
  3 15  1  0
  4  6  4  0
  4 14  4  0
  5 10  4  0
  5 30  4  0
  6  9  4  0
  7 11  4  0
  7 24  4  0
  8 25  1  0
  9 30  4  0
 10 14  4  0
 11 17  4  0
 12 21  1  0
 16 18  4  0
 16 28  4  0
 16 31  4  0
 17 34  4  0
 18 26  2  0
 19 20  2  0
 20 21  4  0
 20 28  4  0
 21 31  4  0
 23 25  1  0
 24 29  4  0
 27 31  4  0
 29 34  4  0
M  END
$$$$

 Created by Python create_sdf_string function

 34 83  0  0  0  0  0  0  0  0999 V2000
    3.3908   -9.1120   16.6991 N   0  0  0  0  0  0  0  0  0  0  0  0
    4.1317   -8.0368   18.0224 C   0  0  0  0  0  0  0  0  0  0  0  0
   11.2636   -4.9986   23.9435 N   0  0  0  0  0  0  0  0  0  0  0  0
   11.0336   -2.7561   21.9433 Se  0  0  0  0  0  0  0  0  0  0  0  0
   11.1231   -4.0852   24.0451 C   0  0  0  0  0  0  0  0  0  0  0  0
    2.4235   -8.8066   16.1462 C   0  0  0  0  0  0  0  0  0  0  0  0
    8.4256   -8.7255   16.3529 C   0  0  0  0  0  0  0  0  0  0  0  0
   10.1227   -2.7969   24.5392 C   0  0  0  0  0  0  0  0  0  0  0  0
   10.6586   -3.6206   21.7609 C   0  0  0  0  0  0  0  0  0  0  0  0
    1.5701   -9.4520   16.2575 P   0  0  0  0  0  0  0  0  0  0  0  0
   10.3519   -3.2867   19.0572 B   0  0  0  0  0  0  0  0  0  0  0  0
   11.4847   -4.7017   22.5894 C   0  0  0  0  0  0  0  0  0  0  0  0
    3.6826   -7.8536   16.8933 C   0  0  0  0  0  0  0  0  0  0  0  0
    9.9546   -7.4197   16.1056 S   0  0  0  0  0  0  0  0  0  0  0  0
    0.6209   -9.6516   15.3337 C   0  0  0  0  0  0  0  0  0  0  0  0
   10.9549   -4.1128   17.0031 C   0  0  0  0  0  0  0  0  0  0  0  0
   10.7103   -4.2234   18.6660 C   0  0  0  0  0  0  0  0  0  0  0  0
    7.8967   -4.2700   16.2448 N   0  0  0  0  0  0  0  0  0  0  0  0
    7.0418   -5.2150   15.1679 O   0  0  0  0  0  0  0  0  0  0  0  0
   10.4493   -5.7637   20.1099 S   0  0  0  0  0  0  0  0  0  0  0  0
    9.2677   -4.4710   16.6225 C   0  0  0  0  0  0  0  0  0  0  0  0
   -0.0688   -8.0699   14.4019 O   0  0  0  0  0  0  0  0  0  0  0  0
   10.0319   -2.0481   23.4367 C   0  0  0  0  0  0  0  0  0  0  0  0
    9.7164   -5.6047   18.2775 C   0  0  0  0  0  0  0  0  0  0  0  0
    0.5327   -8.5644   14.5963 Cl  0  0  0  0  0  0  0  0  0  0  0  0
   10.2770   -5.4649   19.8749 He  0  0  0  0  0  0  0  0  0  0  0  0
    5.5616   -7.7302   15.6742 He  0  0  0  0  0  0  0  0  0  0  0  0
    8.5218   -5.1789   16.9646 He  0  0  0  0  0  0  0  0  0  0  0  0
   10.9122   -3.3096   16.8419 He  0  0  0  0  0  0  0  0  0  0  0  0
   10.1519   -8.9364   18.5452 He  0  0  0  0  0  0  0  0  0  0  0  0
    2.3541   -7.4229   14.3464 He  0  0  0  0  0  0  0  0  0  0  0  0
    7.7331   -6.8489   15.4086 He  0  0  0  0  0  0  0  0  0  0  0  0
    6.2823  -10.4103   17.1464 He  0  0  0  0  0  0  0  0  0  0  0  0
    6.6878   -9.1168   18.5882 He  0  0  0  0  0  0  0  0  0  0  0  0
  1  4  3  0
  1  8  1  0
  1 12  1  0
  1 13  2  0
  1 15  1  0
  2  3  1  0
  2  5  2  0
  2  6  3  0
  2  9  4  0
  2 10  2  0
  2 12  3  0
  2 19  4  0
  2 21  2  0
  2 22  1  0
  2 24  1  0
  3  4  4  0
  3  5  4  0
  3 12  4  0
  3 14  2  0
  3 22  2  0
  4  5  2  0
  4  9  4  0
  4 13  2  0
  4 14  3  0
  4 15  4  0
  4 16  4  0
  4 18  3  0
  4 23  3  0
  5  8  4  0
  5 14  3  0
  5 15  3  0
  5 16  1  0
  5 17  2  0
  5 20  3  0
  5 21  2  0
  6 10  4  0
  6 12  2  0
  6 19  1  0
  7  8  2  0
  7 14  1  0
  7 22  3  0
  8 20  2  0
  8 23  4  0
  8 24  1  0
  8 25  4  0
  9 16  4  0
  9 19  3  0
  9 20  1  0
 10 13  4  0
 10 15  4  0
 10 16  1  0
 10 20  4  0
 10 22  4  0
 10 24  1  0
 11 13  1  0
 11 14  4  0
 11 17  1  0
 11 20  1  0
 12 13  2  0
 12 22  2  0
 13 16  1  0
 13 19  4  0
 13 21  4  0
 13 22  3  0
 13 23  4  0
 13 24  3  0
 13 25  3  0
 14 15  2  0
 14 19  1  0
 14 20  1  0
 14 23  3  0
 14 24  4  0
 14 25  2  0
 15 20  4  0
 16 21  4  0
 17 18  4  0
 17 24  4  0
 18 19  2  0
 18 23  2  0
 19 23  2  0
 20 25  1  0
 22 23  2  0
 22 25  4  0
M  END
$$$$

 Created by Python create_sdf_string function

 34 31  0  0  0  0  0  0  0  0999 V2000
    3.7736   -8.7293   16.6638 N   0  0  0  0  0  0  0  0  0  0  0  0
   10.4777   -5.1635   19.7745 C   0  0  0  0  0  0  0  0  0  0  0  0
    4.7780   -8.4376   17.3744 C   0  0  0  0  0  0  0  0  0  0  0  0
   11.3416   -4.8931   23.9061 N   0  0  0  0  0  0  0  0  0  0  0  0
   10.3663   -2.7904   22.1331 C   0  0  0  0  0  0  0  0  0  0  0  0
   10.8721   -4.0128   24.3582 C   0  0  0  0  0  0  0  0  0  0  0  0
    2.4421   -8.6834   15.9518 C   0  0  0  0  0  0  0  0  0  0  0  0
    8.2410   -8.5862   16.4913 C   0  0  0  0  0  0  0  0  0  0  0  0
   10.3588   -2.8614   24.5427 C   0  0  0  0  0  0  0  0  0  0  0  0
   10.7631   -3.8725   21.6811 C   0  0  0  0  0  0  0  0  0  0  0  0
    1.4800   -9.6379   16.2504 C   0  0  0  0  0  0  0  0  0  0  0  0
   10.8813   -3.3244   19.1429 N   0  0  0  0  0  0  0  0  0  0  0  0
    5.9924   -7.8024   16.0520 C   0  0  0  0  0  0  0  0  0  0  0  0
   11.2236   -4.8537   22.5053 C   0  0  0  0  0  0  0  0  0  0  0  0
    4.4052   -8.1111   16.5016 C   0  0  0  0  0  0  0  0  0  0  0  0
    8.8527   -7.6066   17.0198 C   0  0  0  0  0  0  0  0  0  0  0  0
    0.3626   -9.6736   15.4288 C   0  0  0  0  0  0  0  0  0  0  0  0
    8.5319   -5.7013   16.3755 C   0  0  0  0  0  0  0  0  0  0  0  0
   11.0405   -3.1723   17.0711 C   0  0  0  0  0  0  0  0  0  0  0  0
   10.5219   -3.7167   16.8345 C   0  0  0  0  0  0  0  0  0  0  0  0
   10.5710   -4.2072   18.4540 C   0  0  0  0  0  0  0  0  0  0  0  0
    9.4278   -7.8913   18.1552 C   0  0  0  0  0  0  0  0  0  0  0  0
    8.2922   -5.5319   16.0852 C   0  0  0  0  0  0  0  0  0  0  0  0
    2.2120   -7.6883   14.8653 C   0  0  0  0  0  0  0  0  0  0  0  0
    7.3639   -7.3135   16.0033 C   0  0  0  0  0  0  0  0  0  0  0  0
    7.0953   -5.3768   15.2927 O   0  0  0  0  0  0  0  0  0  0  0  0
   10.6622   -4.5915   20.2021 C   0  0  0  0  0  0  0  0  0  0  0  0
    9.4210   -4.5750   16.2692 C   0  0  0  0  0  0  0  0  0  0  0  0
    0.9744   -7.9462   14.1370 C   0  0  0  0  0  0  0  0  0  0  0  0
   10.0952   -2.1364   23.4284 C   0  0  0  0  0  0  0  0  0  0  0  0
   10.0068   -5.5192   18.4292 C   0  0  0  0  0  0  0  0  0  0  0  0
    6.1301   -9.2346   16.9629 C   0  0  0  0  0  0  0  0  0  0  0  0
    6.1871   -8.5972   17.8849 C   0  0  0  0  0  0  0  0  0  0  0  0
    0.2778   -8.7690   14.4653 C   0  0  0  0  0  0  0  0  0  0  0  0
  1  7  1  0
  1 15  1  0
  2 27  4  0
  2 31  4  0
  4  6  4  0
  4 14  4  0
  5 10  4  0
  5 30  4  0
  6  9  4  0
  7 11  4  0
  7 24  4  0
  8 16  1  0
  9 30  4  0
 10 14  4  0
 10 27  1  0
 11 17  4  0
 12 19  4  0
 12 21  4  0
 12 27  4  0
 13 25  1  0
 16 22  1  0
 17 34  4  0
 18 23  4  0
 18 28  4  0
 19 20  4  0
 20 28  4  0
 21 31  4  0
 23 26  2  0
 24 29  4  0
 29 34  4  0
 32 33  1  0
M  END
$$$$

 Created by Python create_sdf_string function

 34101  0  0  0  0  0  0  0  0999 V2000
    4.8346   -8.6026   17.9813 Se  0  0  0  0  0  0  0  0  0  0  0  0
   11.2258   -5.1046   24.1104 S   0  0  0  0  0  0  0  0  0  0  0  0
    9.7102   -3.4580   21.2411 Cl  0  0  0  0  0  0  0  0  0  0  0  0
   10.6077   -4.4157   24.1662 C   0  0  0  0  0  0  0  0  0  0  0  0
    8.8705   -8.6004   16.5830 C   0  0  0  0  0  0  0  0  0  0  0  0
   10.4363   -2.6547   24.1911 C   0  0  0  0  0  0  0  0  0  0  0  0
   10.8906   -4.1201   21.8064 C   0  0  0  0  0  0  0  0  0  0  0  0
    1.0834   -9.4077   16.1718 C   0  0  0  0  0  0  0  0  0  0  0  0
   10.2055   -3.4225   19.4589 N   0  0  0  0  0  0  0  0  0  0  0  0
   11.1474   -4.9719   22.4260 B   0  0  0  0  0  0  0  0  0  0  0  0
    8.9139   -8.1247   17.8587 C   0  0  0  0  0  0  0  0  0  0  0  0
    0.5300  -10.0605   15.8489 C   0  0  0  0  0  0  0  0  0  0  0  0
    7.6834   -7.9379   15.4696 S   0  0  0  0  0  0  0  0  0  0  0  0
   11.0628   -3.0001   16.9198 N   0  0  0  0  0  0  0  0  0  0  0  0
   10.4487   -4.2537   16.9395 C   0  0  0  0  0  0  0  0  0  0  0  0
    9.2616   -7.6754   18.4911 C   0  0  0  0  0  0  0  0  0  0  0  0
    7.6938   -5.7676   17.3820 N   0  0  0  0  0  0  0  0  0  0  0  0
    2.7304   -7.5948   14.9202 C   0  0  0  0  0  0  0  0  0  0  0  0
    8.5999   -5.9751   15.3877 C   0  0  0  0  0  0  0  0  0  0  0  0
    7.2508   -5.0977   15.6133 F   0  0  0  0  0  0  0  0  0  0  0  0
   10.7424   -2.6443   19.2375 P   0  0  0  0  0  0  0  0  0  0  0  0
    9.0722   -5.1195   15.6550 S   0  0  0  0  0  0  0  0  0  0  0  0
   10.2298   -1.8496   23.6300 P   0  0  0  0  0  0  0  0  0  0  0  0
   10.2130   -5.1669   18.0738 I   0  0  0  0  0  0  0  0  0  0  0  0
    6.6944   -8.5534   16.3062 S   0  0  0  0  0  0  0  0  0  0  0  0
    5.8360   -9.6649   18.9691 O   0  0  0  0  0  0  0  0  0  0  0  0
   -0.2985   -8.8297   14.6660 C   0  0  0  0  0  0  0  0  0  0  0  0
    9.9392   -6.4570   19.5794 He  0  0  0  0  0  0  0  0  0  0  0  0
    6.3095   -7.7220   17.6937 He  0  0  0  0  0  0  0  0  0  0  0  0
    2.6384   -9.1960   15.2716 He  0  0  0  0  0  0  0  0  0  0  0  0
    4.8712   -6.7546   15.3556 He  0  0  0  0  0  0  0  0  0  0  0  0
    4.1959   -7.7964   15.9224 He  0  0  0  0  0  0  0  0  0  0  0  0
   10.4620   -4.5172   18.2459 He  0  0  0  0  0  0  0  0  0  0  0  0
   -0.1156   -7.2357   14.3017 He  0  0  0  0  0  0  0  0  0  0  0  0
  1  6  4  0
  1  7  1  0
  1  8  4  0
  1 12  3  0
  1 13  3  0
  1 14  3  0
  1 24  2  0
  1 26  4  0
  1 27  3  0
  2  3  2  0
  2  4  4  0
  2 10  4  0
  2 13  1  0
  2 15  3  0
  2 16  4  0
  2 19  1  0
  2 21  4  0
  2 23  2  0
  2 25  1  0
  3  5  1  0
  3  9  4  0
  3 11  4  0
  3 19  4  0
  3 23  4  0
  3 24  4  0
  4  8  4  0
  4 13  2  0
  4 14  2  0
  4 15  3  0
  4 16  1  0
  4 19  1  0
  5 11  1  0
  5 13  4  0
  5 16  3  0
  5 17  4  0
  5 24  4  0
  6 11  2  0
  6 13  2  0
  6 17  1  0
  6 23  4  0
  7 10  4  0
  7 22  2  0
  7 26  3  0
  8  9  4  0
  8 12  4  0
  8 16  2  0
  8 19  2  0
  8 22  3  0
  8 25  2  0
  8 27  3  0
  9 13  2  0
  9 14  1  0
  9 16  4  0
  9 20  3  0
  9 22  2  0
  9 25  3  0
 10 11  2  0
 10 16  2  0
 10 17  3  0
 10 21  4  0
 10 25  1  0
 10 26  4  0
 11 12  3  0
 11 15  1  0
 11 18  3  0
 11 19  1  0
 12 17  1  0
 12 21  1  0
 12 24  2  0
 13 14  2  0
 13 16  4  0
 13 18  2  0
 13 20  4  0
 13 22  1  0
 13 24  1  0
 13 27  3  0
 14 15  4  0
 14 19  1  0
 14 23  2  0
 14 27  3  0
 15 17  3  0
 15 19  2  0
 15 22  4  0
 15 25  2  0
 16 22  2  0
 16 23  3  0
 17 20  2  0
 17 21  4  0
 17 22  3  0
 17 23  4  0
 18 21  1  0
 18 25  1  0
 19 20  2  0
 21 23  2  0
 21 24  1  0
 21 25  3  0
 21 27  2  0
 22 23  3  0
 22 26  3  0
 23 26  2  0
 26 27  4  0
M  END
$$$$

 Created by Python create_sdf_string function

 34 30  0  0  0  0  0  0  0  0999 V2000
    4.6294   -8.8194   17.3536 C   0  0  0  0  0  0  0  0  0  0  0  0
    9.9472   -6.3560   19.1655 C   0  0  0  0  0  0  0  0  0  0  0  0
    6.3066   -8.2761   17.6280 C   0  0  0  0  0  0  0  0  0  0  0  0
   11.2168   -4.8511   24.0024 C   0  0  0  0  0  0  0  0  0  0  0  0
   10.4266   -3.4190   21.1525 C   0  0  0  0  0  0  0  0  0  0  0  0
   10.8148   -3.8940   24.5297 C   0  0  0  0  0  0  0  0  0  0  0  0
    2.5979   -8.5915   15.7488 C   0  0  0  0  0  0  0  0  0  0  0  0
    8.3831   -8.3567   16.6559 C   0  0  0  0  0  0  0  0  0  0  0  0
   10.3666   -2.7356   24.2461 C   0  0  0  0  0  0  0  0  0  0  0  0
   10.7213   -4.1242   21.6742 C   0  0  0  0  0  0  0  0  0  0  0  0
    1.7180   -9.4940   16.1451 C   0  0  0  0  0  0  0  0  0  0  0  0
   10.4584   -3.7500   19.9884 N   0  0  0  0  0  0  0  0  0  0  0  0
    4.7216   -7.5371   15.4751 C   0  0  0  0  0  0  0  0  0  0  0  0
   11.1265   -4.8953   22.5083 C   0  0  0  0  0  0  0  0  0  0  0  0
    4.0705   -8.3619   16.2257 C   0  0  0  0  0  0  0  0  0  0  0  0
    8.5476   -8.0545   17.6964 C   0  0  0  0  0  0  0  0  0  0  0  0
    0.5330   -9.7308   15.6234 C   0  0  0  0  0  0  0  0  0  0  0  0
    7.4830   -8.0249   15.6670 C   0  0  0  0  0  0  0  0  0  0  0  0
   11.0525   -3.2571   17.0917 N   0  0  0  0  0  0  0  0  0  0  0  0
   10.3324   -3.9652   16.5672 C   0  0  0  0  0  0  0  0  0  0  0  0
   10.3745   -4.4668   18.8940 C   0  0  0  0  0  0  0  0  0  0  0  0
    9.2730   -7.5344   18.2868 C   0  0  0  0  0  0  0  0  0  0  0  0
    8.7309   -5.9910   16.9297 N   0  0  0  0  0  0  0  0  0  0  0  0
    2.1080   -7.7003   14.8585 C   0  0  0  0  0  0  0  0  0  0  0  0
    7.9790   -6.1761   16.0364 C   0  0  0  0  0  0  0  0  0  0  0  0
    7.1522   -5.5824   15.3738 O   0  0  0  0  0  0  0  0  0  0  0  0
   11.0561   -2.9772   18.7043 N   0  0  0  0  0  0  0  0  0  0  0  0
    9.3527   -4.5431   16.0058 C   0  0  0  0  0  0  0  0  0  0  0  0
    0.7743   -7.8100   14.3952 C   0  0  0  0  0  0  0  0  0  0  0  0
   10.1920   -2.3795   23.0457 C   0  0  0  0  0  0  0  0  0  0  0  0
    9.9107   -5.2090   18.1768 C   0  0  0  0  0  0  0  0  0  0  0  0
    6.2968   -8.1125   16.1611 C   0  0  0  0  0  0  0  0  0  0  0  0
    5.5714   -8.8136   18.3445 O   0  0  0  0  0  0  0  0  0  0  0  0
    0.0382   -8.7946   14.7847 C   0  0  0  0  0  0  0  0  0  0  0  0
  1 15  4  0
  1 33  4  0
  2 22  4  0
  2 31  4  0
  3 33  4  0
  4  6  4  0
  4 14  4  0
  5 10  1  0
  6  9  4  0
  7 11  4  0
  7 15  1  0
  7 24  4  0
  8 16  1  0
  8 18  1  0
  9 30  4  0
 10 14  4  0
 11 17  4  0
 12 21  4  0
 13 15  4  0
 16 22  1  0
 17 34  4  0
 18 32  1  0
 19 20  4  0
 19 27  4  0
 20 28  4  0
 21 31  4  0
 23 25  1  0
 24 29  4  0
 25 26  2  0
 29 34  4  0
M  END
$$$$

 Created by Python create_sdf_string function

 34 36  0  0  0  0  0  0  0  0999 V2000
    5.1620   -8.0838   17.3732 C   0  0  0  0  0  0  0  0  0  0  0  0
   10.8729   -4.7406   24.3949 C   0  0  0  0  0  0  0  0  0  0  0  0
   10.5606   -4.1839   24.2922 O   0  0  0  0  0  0  0  0  0  0  0  0
    7.8264   -8.4361   16.3412 C   0  0  0  0  0  0  0  0  0  0  0  0
   10.2666   -2.7093   24.1280 P   0  0  0  0  0  0  0  0  0  0  0  0
   10.9133   -3.7030   21.3586 C   0  0  0  0  0  0  0  0  0  0  0  0
    9.9315   -4.1272   19.7892 N   0  0  0  0  0  0  0  0  0  0  0  0
    4.0230   -7.6164   15.6136 F   0  0  0  0  0  0  0  0  0  0  0  0
   11.0388   -4.8012   22.4703 C   0  0  0  0  0  0  0  0  0  0  0  0
    9.3122   -7.7323   16.0256 B   0  0  0  0  0  0  0  0  0  0  0  0
    0.6722   -9.1413   15.5956 C   0  0  0  0  0  0  0  0  0  0  0  0
   10.9431   -3.4348   16.8129 N   0  0  0  0  0  0  0  0  0  0  0  0
   10.0571   -4.4839   18.9929 C   0  0  0  0  0  0  0  0  0  0  0  0
    2.1617   -7.1999   14.9415 C   0  0  0  0  0  0  0  0  0  0  0  0
    7.2575   -5.2454   15.0705 O   0  0  0  0  0  0  0  0  0  0  0  0
    9.5061   -4.0529   15.7522 C   0  0  0  0  0  0  0  0  0  0  0  0
   10.5354   -2.7240   23.0358 C   0  0  0  0  0  0  0  0  0  0  0  0
    9.6401   -4.8266   18.3766 C   0  0  0  0  0  0  0  0  0  0  0  0
    5.5690   -9.2755   16.9498 He  0  0  0  0  0  0  0  0  0  0  0  0
    9.7093   -5.9608   18.3239 He  0  0  0  0  0  0  0  0  0  0  0  0
   10.4456   -3.3410   20.8625 He  0  0  0  0  0  0  0  0  0  0  0  0
    2.5478   -9.0804   15.6801 He  0  0  0  0  0  0  0  0  0  0  0  0
    1.7542  -10.0969   16.3437 He  0  0  0  0  0  0  0  0  0  0  0  0
    4.7039   -8.3804   17.0728 He  0  0  0  0  0  0  0  0  0  0  0  0
    6.6096   -8.1444   16.4662 He  0  0  0  0  0  0  0  0  0  0  0  0
   10.4122   -4.0090   16.4040 He  0  0  0  0  0  0  0  0  0  0  0  0
    8.7563   -8.3008   18.8472 He  0  0  0  0  0  0  0  0  0  0  0  0
    7.4483   -6.6194   16.9007 He  0  0  0  0  0  0  0  0  0  0  0  0
    7.3242   -7.2414   17.4355 He  0  0  0  0  0  0  0  0  0  0  0  0
   11.1669   -3.7388   19.1911 He  0  0  0  0  0  0  0  0  0  0  0  0
    0.1222   -7.9383   12.3866 He  0  0  0  0  0  0  0  0  0  0  0  0
    5.0722   -8.1591   14.9027 He  0  0  0  0  0  0  0  0  0  0  0  0
    4.8167   -8.7557   18.6298 He  0  0  0  0  0  0  0  0  0  0  0  0
    0.5493   -8.5051   14.7149 He  0  0  0  0  0  0  0  0  0  0  0  0
  1  4  1  0
  1  6  1  0
  1  8  3  0
  1 10  4  0
  1 11  2  0
  1 14  3  0
  1 15  3  0
  1 16  1  0
  1 17  4  0
  1 18  4  0
  2  3  4  0
  2  4  1  0
  2  9  1  0
  2 14  1  0
  2 18  1  0
  3  5  4  0
  3 17  2  0
  3 18  2  0
  4  8  3  0
  5  7  4  0
  5  8  1  0
  5  9  1  0
  5 14  2  0
  6  9  4  0
  7  8  4  0
  8  9  1  0
  8 11  4  0
  8 12  4  0
  8 14  3  0
  9 14  4  0
 11 15  4  0
 11 16  1  0
 12 13  3  0
 13 16  2  0
 13 18  3  0
 14 15  2  0
M  END
$$$$

 Created by Python create_sdf_string function

 34 33  0  0  0  0  0  0  0  0999 V2000
    5.6459   -8.6486   16.9706 C   0  0  0  0  0  0  0  0  0  0  0  0
    9.2706   -5.7350   17.6757 C   0  0  0  0  0  0  0  0  0  0  0  0
    5.5516   -8.3136   17.3011 C   0  0  0  0  0  0  0  0  0  0  0  0
   11.1138   -4.8992   24.0707 C   0  0  0  0  0  0  0  0  0  0  0  0
   10.8484   -3.6788   20.6120 C   0  0  0  0  0  0  0  0  0  0  0  0
   10.5925   -3.9149   24.6587 C   0  0  0  0  0  0  0  0  0  0  0  0
    2.4658   -8.4711   15.4385 C   0  0  0  0  0  0  0  0  0  0  0  0
    7.8661   -8.4755   16.2099 C   0  0  0  0  0  0  0  0  0  0  0  0
   10.2426   -2.7499   24.1703 C   0  0  0  0  0  0  0  0  0  0  0  0
   10.7763   -3.7373   21.9904 C   0  0  0  0  0  0  0  0  0  0  0  0
    1.6241   -9.3795   16.0719 C   0  0  0  0  0  0  0  0  0  0  0  0
    9.8473   -4.4821   19.8960 N   0  0  0  0  0  0  0  0  0  0  0  0
    3.9338   -8.2944   15.8784 C   0  0  0  0  0  0  0  0  0  0  0  0
   11.1906   -4.8571   22.6556 C   0  0  0  0  0  0  0  0  0  0  0  0
    4.3404   -8.8209   17.1196 C   0  0  0  0  0  0  0  0  0  0  0  0
    8.8183   -7.7794   16.4300 C   0  0  0  0  0  0  0  0  0  0  0  0
    0.3944   -9.5649   15.4082 C   0  0  0  0  0  0  0  0  0  0  0  0
    6.3147   -7.9917   16.1445 C   0  0  0  0  0  0  0  0  0  0  0  0
   11.0914   -3.3909   17.0400 N   0  0  0  0  0  0  0  0  0  0  0  0
   10.2993   -3.9541   16.5266 C   0  0  0  0  0  0  0  0  0  0  0  0
   10.2431   -4.4023   18.8717 C   0  0  0  0  0  0  0  0  0  0  0  0
    8.9666   -7.5504   18.0727 C   0  0  0  0  0  0  0  0  0  0  0  0
    7.7859   -6.3346   16.5209 C   0  0  0  0  0  0  0  0  0  0  0  0
    2.1224   -7.6966   14.4616 C   0  0  0  0  0  0  0  0  0  0  0  0
    7.7581   -7.2781   17.4052 C   0  0  0  0  0  0  0  0  0  0  0  0
    7.1040   -5.5851   15.4669 O   0  0  0  0  0  0  0  0  0  0  0  0
   11.2330   -3.3498   18.4732 N   0  0  0  0  0  0  0  0  0  0  0  0
    9.4985   -4.0823   15.9639 C   0  0  0  0  0  0  0  0  0  0  0  0
    0.8297   -7.9210   13.9152 C   0  0  0  0  0  0  0  0  0  0  0  0
   10.3618   -2.5247   22.9526 C   0  0  0  0  0  0  0  0  0  0  0  0
    9.7654   -5.1223   17.9860 C   0  0  0  0  0  0  0  0  0  0  0  0
    4.9581   -7.6903   15.2158 C   0  0  0  0  0  0  0  0  0  0  0  0
    5.4133   -8.9264   18.5068 O   0  0  0  0  0  0  0  0  0  0  0  0
    0.1347   -8.8386   14.4173 C   0  0  0  0  0  0  0  0  0  0  0  0
  1 18  1  0
  2 22  1  0
  2 31  4  0
  4  6  4  0
  4 14  4  0
  5 10  1  0
  5 12  4  0
  6  9  4  0
  7 11  4  0
  7 13  1  0
  7 24  4  0
  8 16  1  0
  8 18  1  0
  9 30  4  0
 10 14  4  0
 10 30  4  0
 11 17  4  0
 12 21  4  0
 13 15  4  0
 13 32  1  0
 16 22  1  0
 17 34  4  0
 18 32  1  0
 19 20  4  0
 19 27  4  0
 20 28  4  0
 21 27  4  0
 21 31  4  0
 22 25  1  0
 23 25  1  0
 23 26  2  0
 24 29  4  0
 29 34  4  0
M  END
$$$$

 Created by Python create_sdf_string function

 34 70  0  0  0  0  0  0  0  0999 V2000
   10.7014   -5.7681   18.2593 F   0  0  0  0  0  0  0  0  0  0  0  0
    4.9620   -8.4510   17.0611 C   0  0  0  0  0  0  0  0  0  0  0  0
   11.1892   -4.8149   24.5107 C   0  0  0  0  0  0  0  0  0  0  0  0
   10.7088   -4.2441   24.4433 C   0  0  0  0  0  0  0  0  0  0  0  0
    2.1195   -9.0824   15.9608 C   0  0  0  0  0  0  0  0  0  0  0  0
    7.9900   -7.3721   16.0829 C   0  0  0  0  0  0  0  0  0  0  0  0
   10.3768   -2.6062   24.0495 C   0  0  0  0  0  0  0  0  0  0  0  0
   10.6321   -3.1245   22.4052 C   0  0  0  0  0  0  0  0  0  0  0  0
   10.1801   -4.6642   19.8359 N   0  0  0  0  0  0  0  0  0  0  0  0
   11.1103   -4.6457   22.8071 C   0  0  0  0  0  0  0  0  0  0  0  0
    0.3602   -9.3691   15.5218 C   0  0  0  0  0  0  0  0  0  0  0  0
    5.9638   -9.2621   17.0772 I   0  0  0  0  0  0  0  0  0  0  0  0
    9.9243   -4.2203   16.2241 C   0  0  0  0  0  0  0  0  0  0  0  0
   10.5860   -3.9012   19.0978 C   0  0  0  0  0  0  0  0  0  0  0  0
    8.4328   -7.7956   18.2883 P   0  0  0  0  0  0  0  0  0  0  0  0
    7.8811   -5.8098   16.7633 C   0  0  0  0  0  0  0  0  0  0  0  0
    2.5045   -7.7582   14.4565 N   0  0  0  0  0  0  0  0  0  0  0  0
   10.5057   -2.5219   22.9092 C   0  0  0  0  0  0  0  0  0  0  0  0
   10.2324   -4.8002   18.0715 C   0  0  0  0  0  0  0  0  0  0  0  0
    5.8156   -8.5851   14.7180 O   0  0  0  0  0  0  0  0  0  0  0  0
    5.6669   -9.5961   19.3199 F   0  0  0  0  0  0  0  0  0  0  0  0
    0.0727   -8.7269   14.6805 C   0  0  0  0  0  0  0  0  0  0  0  0
    6.1577   -8.2019   18.8062 He  0  0  0  0  0  0  0  0  0  0  0  0
    9.9964   -3.8294   20.1779 He  0  0  0  0  0  0  0  0  0  0  0  0
    1.6636   -9.4741   16.3525 He  0  0  0  0  0  0  0  0  0  0  0  0
    3.6096   -9.4325   16.2278 He  0  0  0  0  0  0  0  0  0  0  0  0
    3.2159   -8.6069   17.5026 He  0  0  0  0  0  0  0  0  0  0  0  0
    9.8097   -7.3371   15.4311 He  0  0  0  0  0  0  0  0  0  0  0  0
   11.2829   -3.5082   17.2362 He  0  0  0  0  0  0  0  0  0  0  0  0
    6.5588   -7.1285   16.2836 He  0  0  0  0  0  0  0  0  0  0  0  0
    7.6543   -5.5471   15.1214 He  0  0  0  0  0  0  0  0  0  0  0  0
   11.3399   -2.7111   18.9653 He  0  0  0  0  0  0  0  0  0  0  0  0
    9.2301   -3.6505   16.0245 He  0  0  0  0  0  0  0  0  0  0  0  0
    0.0921   -9.6761   13.0845 He  0  0  0  0  0  0  0  0  0  0  0  0
  1  2  2  0
  1  4  3  0
  1  5  3  0
  1 10  2  0
  1 15  1  0
  1 21  3  0
  2  3  4  0
  2  6  4  0
  2  7  2  0
  2  8  4  0
  2 11  3  0
  2 15  2  0
  2 17  3  0
  2 20  2  0
  3  4  4  0
  3 10  4  0
  3 16  1  0
  3 22  1  0
  4  7  4  0
  4 15  3  0
  4 20  2  0
  5  6  2  0
  5 11  4  0
  5 14  2  0
  5 15  1  0
  5 17  3  0
  5 20  3  0
  6  8  4  0
  6 13  1  0
  6 16  4  0
  7  9  4  0
  7 11  3  0
  7 12  4  0
  7 15  2  0
  7 16  3  0
  7 17  3  0
  7 18  4  0
  7 20  1  0
  8 10  4  0
  8 11  3  0
  8 12  1  0
  8 18  4  0
  9 12  3  0
  9 14  4  0
  9 19  1  0
  9 20  3  0
  9 22  1  0
 10 12  4  0
 10 20  2  0
 10 22  2  0
 11 15  1  0
 11 16  2  0
 11 22  4  0
 12 13  3  0
 12 15  2  0
 12 17  3  0
 12 18  2  0
 12 20  1  0
 12 22  1  0
 13 15  2  0
 14 19  4  0
 14 21  2  0
 14 22  2  0
 15 16  3  0
 15 17  4  0
 15 19  4  0
 16 18  4  0
 16 19  3  0
 17 20  2  0
 18 21  4  0
M  END
$$$$

 Created by Python create_sdf_string function

 34 25  0  0  0  0  0  0  0  0999 V2000
    6.3979   -8.3394   17.9530 C   0  0  0  0  0  0  0  0  0  0  0  0
    9.6773   -6.0115   18.0437 C   0  0  0  0  0  0  0  0  0  0  0  0
    4.8583   -8.5970   16.8372 C   0  0  0  0  0  0  0  0  0  0  0  0
   11.1492   -4.8372   24.1632 C   0  0  0  0  0  0  0  0  0  0  0  0
   10.7642   -3.5898   20.6672 C   0  0  0  0  0  0  0  0  0  0  0  0
   10.7307   -3.7941   24.8863 C   0  0  0  0  0  0  0  0  0  0  0  0
    2.0744   -9.0231   15.7918 C   0  0  0  0  0  0  0  0  0  0  0  0
    7.9886   -7.3309   16.1873 C   0  0  0  0  0  0  0  0  0  0  0  0
   10.3702   -2.6288   24.3071 C   0  0  0  0  0  0  0  0  0  0  0  0
   10.7391   -3.5766   22.1710 C   0  0  0  0  0  0  0  0  0  0  0  0
    1.5224   -9.5418   16.4840 C   0  0  0  0  0  0  0  0  0  0  0  0
   10.3260   -4.6870   20.1571 N   0  0  0  0  0  0  0  0  0  0  0  0
    3.6532   -8.7462   16.1143 C   0  0  0  0  0  0  0  0  0  0  0  0
   11.1138   -4.7594   22.7431 C   0  0  0  0  0  0  0  0  0  0  0  0
    3.9289   -9.0422   17.1411 C   0  0  0  0  0  0  0  0  0  0  0  0
    8.4941   -6.6291   16.4467 C   0  0  0  0  0  0  0  0  0  0  0  0
    0.2110   -9.6106   15.5975 C   0  0  0  0  0  0  0  0  0  0  0  0
    5.9564   -8.5138   17.0267 C   0  0  0  0  0  0  0  0  0  0  0  0
   11.1257   -3.1848   17.1876 C   0  0  0  0  0  0  0  0  0  0  0  0
   10.0067   -3.8824   16.4044 C   0  0  0  0  0  0  0  0  0  0  0  0
   10.6012   -4.2088   18.9389 C   0  0  0  0  0  0  0  0  0  0  0  0
    8.5809   -7.4432   17.8728 C   0  0  0  0  0  0  0  0  0  0  0  0
    8.8681   -5.7906   16.6341 C   0  0  0  0  0  0  0  0  0  0  0  0
    2.2722   -8.3275   14.5788 C   0  0  0  0  0  0  0  0  0  0  0  0
    6.6119   -7.6741   16.1936 C   0  0  0  0  0  0  0  0  0  0  0  0
    7.5593   -5.4755   15.3190 O   0  0  0  0  0  0  0  0  0  0  0  0
   11.0972   -3.0648   19.1981 N   0  0  0  0  0  0  0  0  0  0  0  0
    9.3145   -3.7896   15.7272 N   0  0  0  0  0  0  0  0  0  0  0  0
    0.9406   -8.5647   14.0265 C   0  0  0  0  0  0  0  0  0  0  0  0
   10.3814   -2.4806   22.9217 C   0  0  0  0  0  0  0  0  0  0  0  0
   10.1565   -4.9870   18.1616 C   0  0  0  0  0  0  0  0  0  0  0  0
    5.5907   -8.0799   15.5168 C   0  0  0  0  0  0  0  0  0  0  0  0
    5.8849   -8.9688   18.9649 O   0  0  0  0  0  0  0  0  0  0  0  0
    0.0306   -9.1930   14.4226 C   0  0  0  0  0  0  0  0  0  0  0  0
  2 31  4  0
  3 15  4  0
  4  6  4  0
  4 14  4  0
  5 10  1  0
  5 12  4  0
  5 27  4  0
  6  9  4  0
  7 11  4  0
  7 13  1  0
  7 24  4  0
  8 16  1  0
  9 30  4  0
 10 14  4  0
 10 30  4  0
 11 17  4  0
 12 21  4  0
 17 34  4  0
 19 20  4  0
 19 27  4  0
 20 28  4  0
 21 27  4  0
 21 31  4  0
 24 29  4  0
 29 34  4  0
M  END
$$$$

 Created by Python create_sdf_string function

 34 60  0  0  0  0  0  0  0  0999 V2000
    5.7837   -7.1812   18.6942 C   0  0  0  0  0  0  0  0  0  0  0  0
    5.6078  -11.0321   18.2627 C   0  0  0  0  0  0  0  0  0  0  0  0
   11.3466   -5.0539   24.0083 C   0  0  0  0  0  0  0  0  0  0  0  0
   10.1699   -3.6587   24.9502 C   0  0  0  0  0  0  0  0  0  0  0  0
    1.9622   -9.3887   15.9741 C   0  0  0  0  0  0  0  0  0  0  0  0
    8.3354   -7.1695   16.5671 F   0  0  0  0  0  0  0  0  0  0  0  0
   10.4560   -2.3647   24.6942 C   0  0  0  0  0  0  0  0  0  0  0  0
   11.1741   -3.7504   22.1780 C   0  0  0  0  0  0  0  0  0  0  0  0
   10.1176   -4.7982   20.2596 N   0  0  0  0  0  0  0  0  0  0  0  0
   11.1187   -4.3832   22.6621 C   0  0  0  0  0  0  0  0  0  0  0  0
    3.9946   -8.4494   16.6380 S   0  0  0  0  0  0  0  0  0  0  0  0
   -0.0336   -9.4662   15.5090 N   0  0  0  0  0  0  0  0  0  0  0  0
    9.8540   -4.2389   16.2023 C   0  0  0  0  0  0  0  0  0  0  0  0
    8.8687   -6.9873   17.3953 N   0  0  0  0  0  0  0  0  0  0  0  0
    8.4843   -7.0293   16.8554 P   0  0  0  0  0  0  0  0  0  0  0  0
    2.0461   -8.5070   14.1342 C   0  0  0  0  0  0  0  0  0  0  0  0
    5.1487   -7.3868   17.4869 Se  0  0  0  0  0  0  0  0  0  0  0  0
    7.5166   -4.8826   15.3608 N   0  0  0  0  0  0  0  0  0  0  0  0
   12.3049   -3.1650   19.6055 N   0  0  0  0  0  0  0  0  0  0  0  0
    9.2480   -3.9771   16.1876 N   0  0  0  0  0  0  0  0  0  0  0  0
    2.2274   -7.6457   14.5366 Cl  0  0  0  0  0  0  0  0  0  0  0  0
   10.0945   -2.7007   22.8304 C   0  0  0  0  0  0  0  0  0  0  0  0
    9.7384   -5.1672   18.3386 O   0  0  0  0  0  0  0  0  0  0  0  0
    6.2909  -10.2380   19.0945 F   0  0  0  0  0  0  0  0  0  0  0  0
   -0.1396   -9.1983   14.2104 C   0  0  0  0  0  0  0  0  0  0  0  0
   10.2712   -4.7154   17.1478 He  0  0  0  0  0  0  0  0  0  0  0  0
   11.5012   -3.8625   19.0852 He  0  0  0  0  0  0  0  0  0  0  0  0
    1.4042   -9.6891   16.6431 He  0  0  0  0  0  0  0  0  0  0  0  0
    3.4211   -8.2005   16.3757 He  0  0  0  0  0  0  0  0  0  0  0  0
    8.7132   -6.0739   16.3283 He  0  0  0  0  0  0  0  0  0  0  0  0
    6.8244   -8.4955   18.3665 He  0  0  0  0  0  0  0  0  0  0  0  0
   11.1912   -3.6722   16.9118 He  0  0  0  0  0  0  0  0  0  0  0  0
   10.4890   -4.3632   18.3470 He  0  0  0  0  0  0  0  0  0  0  0  0
    5.0276   -8.2601   14.9106 He  0  0  0  0  0  0  0  0  0  0  0  0
  1  8  4  0
  1  9  2  0
  1 13  1  0
  1 14  3  0
  1 15  3  0
  1 24  1  0
  2  8  4  0
  2  9  2  0
  2 11  3  0
  2 18  2  0
  2 19  1  0
  2 23  3  0
  3  4  4  0
  3 10  4  0
  3 18  4  0
  3 23  4  0
  3 24  2  0
  4  7  4  0
  4 14  4  0
  4 18  3  0
  4 19  4  0
  5 11  3  0
  5 16  4  0
  5 21  4  0
  6 12  4  0
  6 15  1  0
  6 16  4  0
  7 17  1  0
  7 21  2  0
  7 22  4  0
  8 15  4  0
  8 22  4  0
  8 23  1  0
  8 25  1  0
  9 17  4  0
  9 21  1  0
 10 11  4  0
 10 14  1  0
 10 15  4  0
 10 22  1  0
 10 25  2  0
 11 15  1  0
 11 19  3  0
 11 22  2  0
 11 23  1  0
 12 15  2  0
 12 19  4  0
 12 25  4  0
 13 20  4  0
 13 24  2  0
 14 15  1  0
 14 18  4  0
 14 24  3  0
 15 18  4  0
 16 17  2  0
 17 23  3  0
 18 22  3  0
 19 21  3  0
 19 22  2  0
 20 25  4  0
M  END
$$$$

 Created by Python create_sdf_string function

 34 29  0  0  0  0  0  0  0  0999 V2000
    6.0926   -7.8297   17.7599 C   0  0  0  0  0  0  0  0  0  0  0  0
    9.7951   -4.9813   17.5277 C   0  0  0  0  0  0  0  0  0  0  0  0
    4.8129   -9.8125   17.6630 C   0  0  0  0  0  0  0  0  0  0  0  0
   11.1073   -4.7547   24.3016 C   0  0  0  0  0  0  0  0  0  0  0  0
   10.9891   -3.8230   20.7067 C   0  0  0  0  0  0  0  0  0  0  0  0
   10.5510   -3.7462   24.9650 C   0  0  0  0  0  0  0  0  0  0  0  0
    2.0797   -9.0796   15.9060 C   0  0  0  0  0  0  0  0  0  0  0  0
    8.2823   -7.5587   16.3679 C   0  0  0  0  0  0  0  0  0  0  0  0
   10.2487   -2.5398   24.3564 C   0  0  0  0  0  0  0  0  0  0  0  0
   10.9432   -3.5681   22.3244 C   0  0  0  0  0  0  0  0  0  0  0  0
    1.0940   -9.7418   16.3830 C   0  0  0  0  0  0  0  0  0  0  0  0
   10.2920   -4.8378   20.3213 N   0  0  0  0  0  0  0  0  0  0  0  0
    3.5440   -8.8197   16.5744 C   0  0  0  0  0  0  0  0  0  0  0  0
   11.2808   -4.7050   22.9534 C   0  0  0  0  0  0  0  0  0  0  0  0
    4.0591   -8.8862   16.7554 C   0  0  0  0  0  0  0  0  0  0  0  0
    8.7711   -5.5405   16.5638 C   0  0  0  0  0  0  0  0  0  0  0  0
   -0.0018   -9.7964   15.5496 N   0  0  0  0  0  0  0  0  0  0  0  0
    6.4753   -8.8129   17.8905 C   0  0  0  0  0  0  0  0  0  0  0  0
   11.0173   -3.3933   17.1402 N   0  0  0  0  0  0  0  0  0  0  0  0
   10.2675   -3.6273   16.0788 C   0  0  0  0  0  0  0  0  0  0  0  0
   10.5942   -4.4706   19.2179 C   0  0  0  0  0  0  0  0  0  0  0  0
    8.5262   -6.8171   17.4791 N   0  0  0  0  0  0  0  0  0  0  0  0
    7.9745   -6.9435   16.7971 C   0  0  0  0  0  0  0  0  0  0  0  0
    1.6036   -8.4087   14.3813 C   0  0  0  0  0  0  0  0  0  0  0  0
    5.4961   -7.7308   16.8379 C   0  0  0  0  0  0  0  0  0  0  0  0
    7.3224   -5.5904   15.4529 O   0  0  0  0  0  0  0  0  0  0  0  0
   11.5498   -3.2214   19.9210 N   0  0  0  0  0  0  0  0  0  0  0  0
    9.2108   -3.9000   15.6676 N   0  0  0  0  0  0  0  0  0  0  0  0
    1.9783   -8.3465   14.6241 C   0  0  0  0  0  0  0  0  0  0  0  0
   10.4729   -2.4695   23.0195 C   0  0  0  0  0  0  0  0  0  0  0  0
    9.9302   -5.3810   18.3043 C   0  0  0  0  0  0  0  0  0  0  0  0
    5.1151   -7.7369   15.9609 C   0  0  0  0  0  0  0  0  0  0  0  0
    5.8976   -8.9862   18.7486 C   0  0  0  0  0  0  0  0  0  0  0  0
   -0.0684   -9.2625   14.4510 C   0  0  0  0  0  0  0  0  0  0  0  0
  1 25  4  0
  2 16  4  0
  2 31  4  0
  3 15  4  0
  4  6  4  0
  4 14  4  0
  5 10  1  0
  5 12  4  0
  5 27  4  0
  6  9  4  0
  7 11  4  0
  7 13  1  0
  7 24  4  0
  8 23  1  0
  9 30  4  0
 10 14  4  0
 10 30  4  0
 11 17  4  0
 12 21  4  0
 13 15  4  0
 17 34  4  0
 19 20  4  0
 20 28  4  0
 21 27  4  0
 21 31  4  0
 22 23  1  0
 24 29  4  0
 24 34  4  0
 25 32  4  0
M  END
$$$$

 Created by Python create_sdf_string function

 34 53  0  0  0  0  0  0  0  0999 V2000
   10.6070   -5.7125   17.2985 Cl  0  0  0  0  0  0  0  0  0  0  0  0
   10.9136   -4.3704   24.6535 C   0  0  0  0  0  0  0  0  0  0  0  0
   11.1683   -4.3089   20.8470 F   0  0  0  0  0  0  0  0  0  0  0  0
    8.6162   -7.6379   16.8748 O   0  0  0  0  0  0  0  0  0  0  0  0
   11.1491   -4.2476   22.3677 O   0  0  0  0  0  0  0  0  0  0  0  0
    1.3622   -9.9010   16.7056 C   0  0  0  0  0  0  0  0  0  0  0  0
   10.1878   -4.6319   20.4651 N   0  0  0  0  0  0  0  0  0  0  0  0
    3.4850   -7.7910   16.0506 Cl  0  0  0  0  0  0  0  0  0  0  0  0
   11.3791   -4.6149   22.4437 C   0  0  0  0  0  0  0  0  0  0  0  0
   -0.2697   -9.7258   15.6358 N   0  0  0  0  0  0  0  0  0  0  0  0
   10.4909   -3.6778   17.0523 N   0  0  0  0  0  0  0  0  0  0  0  0
   10.5029   -4.6769   18.9802 C   0  0  0  0  0  0  0  0  0  0  0  0
    8.0099   -5.8142   17.1589 C   0  0  0  0  0  0  0  0  0  0  0  0
    1.4117   -8.3607   14.0049 C   0  0  0  0  0  0  0  0  0  0  0  0
   11.6762   -1.6129   21.1540 B   0  0  0  0  0  0  0  0  0  0  0  0
    9.0665   -4.4805   15.8559 N   0  0  0  0  0  0  0  0  0  0  0  0
    1.6028   -8.7945   15.9368 F   0  0  0  0  0  0  0  0  0  0  0  0
   10.1288   -2.5175   23.2084 C   0  0  0  0  0  0  0  0  0  0  0  0
    9.7201   -5.6232   17.8440 C   0  0  0  0  0  0  0  0  0  0  0  0
    4.9773   -8.6730   16.8335 C   0  0  0  0  0  0  0  0  0  0  0  0
    0.3262   -9.1739   14.0345 C   0  0  0  0  0  0  0  0  0  0  0  0
    6.0800   -7.5478   16.8745 He  0  0  0  0  0  0  0  0  0  0  0  0
    4.3662  -10.5468   17.1157 He  0  0  0  0  0  0  0  0  0  0  0  0
   10.4853   -4.0332   24.9353 He  0  0  0  0  0  0  0  0  0  0  0  0
    1.9713   -9.5196   16.2518 He  0  0  0  0  0  0  0  0  0  0  0  0
   10.3236   -3.2045   23.7742 He  0  0  0  0  0  0  0  0  0  0  0  0
    4.2682   -8.0302   16.5131 He  0  0  0  0  0  0  0  0  0  0  0  0
    8.6099   -5.3672   15.1475 He  0  0  0  0  0  0  0  0  0  0  0  0
    6.7841   -8.9554   19.6404 He  0  0  0  0  0  0  0  0  0  0  0  0
   10.2858   -3.3977   15.8714 He  0  0  0  0  0  0  0  0  0  0  0  0
   10.0105   -6.2376   16.0640 He  0  0  0  0  0  0  0  0  0  0  0  0
    5.3919   -6.4280   17.2359 He  0  0  0  0  0  0  0  0  0  0  0  0
    7.4747   -5.3930   15.4532 He  0  0  0  0  0  0  0  0  0  0  0  0
    6.4211   -9.0919   18.1324 He  0  0  0  0  0  0  0  0  0  0  0  0
  1  2  1  0
  1  6  1  0
  1 10  2  0
  1 12  2  0
  1 13  1  0
  1 15  4  0
  1 18  4  0
  2  4  1  0
  2 15  4  0
  3  8  1  0
  3 10  2  0
  3 13  4  0
  3 14  3  0
  3 21  4  0
  4  6  1  0
  4 15  2  0
  4 17  2  0
  4 21  1  0
  5  9  3  0
  5 13  1  0
  5 16  1  0
  5 17  4  0
  5 18  4  0
  5 19  1  0
  6 10  4  0
  6 15  1  0
  7 12  4  0
  7 13  4  0
  8  9  1  0
  8 10  3  0
  8 11  4  0
  8 15  4  0
  8 18  3  0
  9 11  2  0
  9 12  1  0
  9 14  3  0
  9 21  2  0
 10 17  2  0
 10 18  3  0
 10 21  4  0
 12 13  2  0
 12 15  4  0
 12 21  1  0
 13 14  1  0
 13 15  4  0
 14 15  2  0
 14 17  4  0
 14 20  2  0
 15 20  3  0
 17 18  3  0
 17 20  4  0
 18 21  1  0
 20 21  1  0
M  END
$$$$

 Created by Python create_sdf_string function

 34 26  0  0  0  0  0  0  0  0999 V2000
    6.0393   -7.4939   16.7400 C   0  0  0  0  0  0  0  0  0  0  0  0
   10.3251   -4.8009   18.0022 C   0  0  0  0  0  0  0  0  0  0  0  0
    4.1611   -9.7747   17.5620 C   0  0  0  0  0  0  0  0  0  0  0  0
   11.1106   -4.7667   24.5025 C   0  0  0  0  0  0  0  0  0  0  0  0
   11.1568   -3.9786   20.8293 C   0  0  0  0  0  0  0  0  0  0  0  0
   10.4814   -3.7839   25.0323 C   0  0  0  0  0  0  0  0  0  0  0  0
    1.9910   -9.2190   16.0732 C   0  0  0  0  0  0  0  0  0  0  0  0
    8.7630   -7.9219   17.0362 O   0  0  0  0  0  0  0  0  0  0  0  0
   10.1080   -2.6763   24.3044 C   0  0  0  0  0  0  0  0  0  0  0  0
   10.9534   -3.7608   22.4906 C   0  0  0  0  0  0  0  0  0  0  0  0
    0.8130  -10.0720   16.3814 C   0  0  0  0  0  0  0  0  0  0  0  0
   10.3208   -4.7218   20.3283 N   0  0  0  0  0  0  0  0  0  0  0  0
    3.4974   -8.0771   15.9772 C   0  0  0  0  0  0  0  0  0  0  0  0
   11.3256   -4.8736   23.1819 C   0  0  0  0  0  0  0  0  0  0  0  0
    4.3724   -8.1792   16.4837 C   0  0  0  0  0  0  0  0  0  0  0  0
    8.7201   -5.5794   16.1613 C   0  0  0  0  0  0  0  0  0  0  0  0
   -0.0485  -10.0320   15.4677 N   0  0  0  0  0  0  0  0  0  0  0  0
    6.4614   -8.6467   18.5510 C   0  0  0  0  0  0  0  0  0  0  0  0
   10.8131   -3.6468   17.2993 N   0  0  0  0  0  0  0  0  0  0  0  0
   10.2698   -3.5779   15.9054 C   0  0  0  0  0  0  0  0  0  0  0  0
   10.7327   -4.3220   19.5257 C   0  0  0  0  0  0  0  0  0  0  0  0
    8.8687   -5.8927   16.5558 C   0  0  0  0  0  0  0  0  0  0  0  0
    7.8841   -6.6905   16.6762 C   0  0  0  0  0  0  0  0  0  0  0  0
    1.2373   -8.4832   14.3385 C   0  0  0  0  0  0  0  0  0  0  0  0
    5.8112   -7.2016   16.5389 C   0  0  0  0  0  0  0  0  0  0  0  0
    7.2922   -5.4948   15.4360 O   0  0  0  0  0  0  0  0  0  0  0  0
   11.4084   -3.0687   20.4088 N   0  0  0  0  0  0  0  0  0  0  0  0
    9.1419   -4.1536   15.7068 N   0  0  0  0  0  0  0  0  0  0  0  0
    2.0637   -8.7355   15.4601 C   0  0  0  0  0  0  0  0  0  0  0  0
   10.3661   -2.5335   23.0678 C   0  0  0  0  0  0  0  0  0  0  0  0
    9.9586   -5.8330   18.1065 C   0  0  0  0  0  0  0  0  0  0  0  0
    4.7864   -8.6775   17.0652 C   0  0  0  0  0  0  0  0  0  0  0  0
    6.4636   -8.5028   17.8638 C   0  0  0  0  0  0  0  0  0  0  0  0
    0.1168   -9.2742   14.3892 C   0  0  0  0  0  0  0  0  0  0  0  0
  1 25  4  0
  2 19  4  0
  2 21  1  0
  2 31  4  0
  3 32  4  0
  4  6  4  0
  4 14  4  0
  5 10  1  0
  5 27  4  0
  6  9  4  0
  7 11  4  0
  7 29  4  0
  9 30  4  0
 10 14  4  0
 10 30  4  0
 11 17  4  0
 12 21  4  0
 13 15  4  0
 13 29  1  0
 15 32  4  0
 17 34  4  0
 18 33  4  0
 19 20  4  0
 20 28  4  0
 24 29  4  0
 24 34  4  0
M  END
$$$$

 Created by Python create_sdf_string function

 34 53  0  0  0  0  0  0  0  0999 V2000
   10.5460   -6.8804   19.4660 C   0  0  0  0  0  0  0  0  0  0  0  0
   10.9240   -4.5745   25.0871 N   0  0  0  0  0  0  0  0  0  0  0  0
   10.5991   -3.0217   25.0296 C   0  0  0  0  0  0  0  0  0  0  0  0
    1.8660   -9.3421   15.9214 C   0  0  0  0  0  0  0  0  0  0  0  0
    8.8735   -8.1299   17.1023 O   0  0  0  0  0  0  0  0  0  0  0  0
   10.4616   -4.1263   22.4835 C   0  0  0  0  0  0  0  0  0  0  0  0
    1.0603   -9.3241   16.3906 C   0  0  0  0  0  0  0  0  0  0  0  0
   10.1175   -4.5759   20.2930 N   0  0  0  0  0  0  0  0  0  0  0  0
   11.1656   -5.1898   23.4892 C   0  0  0  0  0  0  0  0  0  0  0  0
    3.7363  -10.7179   17.2166 O   0  0  0  0  0  0  0  0  0  0  0  0
   -0.4804   -9.9010   15.1051 Cl  0  0  0  0  0  0  0  0  0  0  0  0
    6.6232   -9.4175   17.0527 O   0  0  0  0  0  0  0  0  0  0  0  0
   11.1302   -3.1632   17.0979 N   0  0  0  0  0  0  0  0  0  0  0  0
   10.6407   -3.9044   19.1893 C   0  0  0  0  0  0  0  0  0  0  0  0
    8.6499   -5.8941   17.5623 S   0  0  0  0  0  0  0  0  0  0  0  0
    7.3095   -7.0373   17.8770 C   0  0  0  0  0  0  0  0  0  0  0  0
    7.8495   -5.0947   15.3649 O   0  0  0  0  0  0  0  0  0  0  0  0
   13.1982   -3.6142   20.2929 Cl  0  0  0  0  0  0  0  0  0  0  0  0
   10.5573   -2.0942   22.5802 N   0  0  0  0  0  0  0  0  0  0  0  0
    9.4088   -5.4671   17.9518 C   0  0  0  0  0  0  0  0  0  0  0  0
    0.2401   -9.5184   14.5988 C   0  0  0  0  0  0  0  0  0  0  0  0
    6.3477   -8.0207   15.5699 He  0  0  0  0  0  0  0  0  0  0  0  0
    2.5066  -10.9035   17.8512 He  0  0  0  0  0  0  0  0  0  0  0  0
   11.5059   -4.1184   21.0071 He  0  0  0  0  0  0  0  0  0  0  0  0
   10.2102   -3.1084   24.0193 He  0  0  0  0  0  0  0  0  0  0  0  0
    3.1573   -9.2213   15.1043 He  0  0  0  0  0  0  0  0  0  0  0  0
   10.5689   -6.0394   15.4104 He  0  0  0  0  0  0  0  0  0  0  0  0
   10.0400   -3.1943   16.1156 He  0  0  0  0  0  0  0  0  0  0  0  0
    8.9202   -4.3151   16.4627 He  0  0  0  0  0  0  0  0  0  0  0  0
    1.5687   -7.8389   14.5011 He  0  0  0  0  0  0  0  0  0  0  0  0
    9.4516   -4.3622   16.4423 He  0  0  0  0  0  0  0  0  0  0  0  0
    2.6251   -8.5390   16.4405 He  0  0  0  0  0  0  0  0  0  0  0  0
    5.1156   -6.1641   16.4225 He  0  0  0  0  0  0  0  0  0  0  0  0
    7.0965   -8.4512   17.3496 He  0  0  0  0  0  0  0  0  0  0  0  0
  1  2  4  0
  1  5  3  0
  1  6  3  0
  1 12  1  0
  1 14  1  0
  1 18  4  0
  1 19  1  0
  2  3  4  0
  2  4  1  0
  2  9  4  0
  2 10  2  0
  2 18  3  0
  3 15  4  0
  4 14  2  0
  4 16  3  0
  4 17  2  0
  4 19  1  0
  4 20  1  0
  5 16  2  0
  6  9  3  0
  6 10  4  0
  6 12  4  0
  6 16  1  0
  6 19  4  0
  7  8  4  0
  7  9  4  0
  7 11  1  0
  7 12  3  0
  7 15  4  0
  7 17  1  0
  8 10  4  0
  8 14  4  0
  8 15  2  0
  9 10  2  0
  9 12  4  0
  9 15  2  0
  9 16  3  0
 10 18  4  0
 11 14  2  0
 11 18  1  0
 11 21  4  0
 12 14  3  0
 12 18  1  0
 13 14  3  0
 14 16  3  0
 15 16  2  0
 15 17  4  0
 16 18  4  0
 16 19  1  0
 16 20  2  0
 16 21  4  0
 17 21  2  0
 18 20  3  0
M  END
$$$$

 Created by Python create_sdf_string function

 34 29  0  0  0  0  0  0  0  0999 V2000
    6.1258   -8.1768   16.0479 C   0  0  0  0  0  0  0  0  0  0  0  0
   10.1358   -6.2492   18.9257 C   0  0  0  0  0  0  0  0  0  0  0  0
    2.6893  -10.3025   17.8519 N   0  0  0  0  0  0  0  0  0  0  0  0
   11.0301   -4.4563   24.8647 N   0  0  0  0  0  0  0  0  0  0  0  0
   11.2896   -4.1838   21.0618 C   0  0  0  0  0  0  0  0  0  0  0  0
   10.4351   -3.3052   25.1277 C   0  0  0  0  0  0  0  0  0  0  0  0
    2.1611   -9.3653   16.2254 C   0  0  0  0  0  0  0  0  0  0  0  0
    8.5251   -8.2767   17.0971 C   0  0  0  0  0  0  0  0  0  0  0  0
   10.0896   -2.4553   24.1411 C   0  0  0  0  0  0  0  0  0  0  0  0
   10.9798   -3.8874   22.5474 C   0  0  0  0  0  0  0  0  0  0  0  0
    1.3720   -9.6871   16.2385 C   0  0  0  0  0  0  0  0  0  0  0  0
   10.5687   -4.1076   20.1919 N   0  0  0  0  0  0  0  0  0  0  0  0
    2.9640   -8.8489   15.8570 C   0  0  0  0  0  0  0  0  0  0  0  0
   11.3550   -4.8131   23.5197 C   0  0  0  0  0  0  0  0  0  0  0  0
    3.7276   -9.8596   17.5739 N   0  0  0  0  0  0  0  0  0  0  0  0
    9.4207   -5.5340   16.2598 C   0  0  0  0  0  0  0  0  0  0  0  0
    0.1368   -9.8631   15.4006 C   0  0  0  0  0  0  0  0  0  0  0  0
    6.3971   -9.1564   17.1543 O   0  0  0  0  0  0  0  0  0  0  0  0
   11.0154   -3.4025   17.7881 C   0  0  0  0  0  0  0  0  0  0  0  0
   10.6642   -3.5265   16.4099 C   0  0  0  0  0  0  0  0  0  0  0  0
   10.7486   -4.1892   18.7322 C   0  0  0  0  0  0  0  0  0  0  0  0
    8.8253   -5.1207   16.2401 C   0  0  0  0  0  0  0  0  0  0  0  0
    8.5725   -6.3459   17.2860 N   0  0  0  0  0  0  0  0  0  0  0  0
    1.5990   -8.6148   14.4611 C   0  0  0  0  0  0  0  0  0  0  0  0
    7.3625   -7.2569   17.4616 C   0  0  0  0  0  0  0  0  0  0  0  0
    7.4336   -5.4205   15.4035 O   0  0  0  0  0  0  0  0  0  0  0  0
   12.2925   -4.1375   20.8876 O   0  0  0  0  0  0  0  0  0  0  0  0
    9.8042   -4.3286   16.5000 C   0  0  0  0  0  0  0  0  0  0  0  0
    3.4020   -8.9188   16.3886 C   0  0  0  0  0  0  0  0  0  0  0  0
   10.3729   -2.7187   22.8498 C   0  0  0  0  0  0  0  0  0  0  0  0
    9.6495   -5.8159   18.2398 C   0  0  0  0  0  0  0  0  0  0  0  0
    5.1553   -7.5205   16.2328 C   0  0  0  0  0  0  0  0  0  0  0  0
    7.0539   -8.3273   16.8296 C   0  0  0  0  0  0  0  0  0  0  0  0
    0.3991   -9.1693   14.5714 C   0  0  0  0  0  0  0  0  0  0  0  0
  1 33  1  0
  2 31  4  0
  3 15  4  0
  4  6  4  0
  4 14  4  0
  5 10  1  0
  5 12  1  0
  5 27  2  0
  6  9  4  0
  7 11  4  0
  7 29  4  0
  8 33  1  0
  9 30  4  0
 10 14  4  0
 10 30  4  0
 11 17  4  0
 12 21  1  0
 15 29  4  0
 16 28  4  0
 17 34  4  0
 18 33  1  0
 19 20  4  0
 19 21  4  0
 20 28  4  0
 22 26  2  0
 23 25  1  0
 24 34  4  0
 25 33  1  0
 29 32  1  0
M  END
$$$$

 Created by Python create_sdf_string function

 34 87  0  0  0  0  0  0  0  0999 V2000
    8.6831   -6.4590   19.3362 Cl  0  0  0  0  0  0  0  0  0  0  0  0
    3.6883  -11.4461   18.0722 N   0  0  0  0  0  0  0  0  0  0  0  0
   11.0741   -4.4361   24.7010 N   0  0  0  0  0  0  0  0  0  0  0  0
   12.8255   -4.8154   22.2450 C   0  0  0  0  0  0  0  0  0  0  0  0
   10.6895   -3.0471   25.6079 C   0  0  0  0  0  0  0  0  0  0  0  0
    2.4727   -9.6896   16.0780 C   0  0  0  0  0  0  0  0  0  0  0  0
   10.7049   -4.1863   23.0483 C   0  0  0  0  0  0  0  0  0  0  0  0
    1.3823   -9.6267   15.7544 C   0  0  0  0  0  0  0  0  0  0  0  0
   10.6205   -4.4057   20.1280 N   0  0  0  0  0  0  0  0  0  0  0  0
   11.9700   -4.4222   23.4801 C   0  0  0  0  0  0  0  0  0  0  0  0
    3.7110   -8.6170   16.4008 N   0  0  0  0  0  0  0  0  0  0  0  0
    0.2257  -10.5861   15.4829 C   0  0  0  0  0  0  0  0  0  0  0  0
    5.5006   -9.0934   17.2094 P   0  0  0  0  0  0  0  0  0  0  0  0
   10.9887   -3.1782   16.8822 C   0  0  0  0  0  0  0  0  0  0  0  0
   10.9592   -3.6716   16.5007 C   0  0  0  0  0  0  0  0  0  0  0  0
   10.6913   -3.9950   18.6482 C   0  0  0  0  0  0  0  0  0  0  0  0
    9.5062   -5.8294   17.8525 Cl  0  0  0  0  0  0  0  0  0  0  0  0
    8.0755   -5.0468   17.2249 S   0  0  0  0  0  0  0  0  0  0  0  0
    1.5697   -8.2999   14.2277 N   0  0  0  0  0  0  0  0  0  0  0  0
    8.2039   -7.5317   16.3750 S   0  0  0  0  0  0  0  0  0  0  0  0
    7.5884   -5.2189   15.7440 O   0  0  0  0  0  0  0  0  0  0  0  0
   11.9455   -4.1335   21.6858 N   0  0  0  0  0  0  0  0  0  0  0  0
    9.5598   -4.5543   16.7469 C   0  0  0  0  0  0  0  0  0  0  0  0
    4.7952   -6.0152   17.0649 Cl  0  0  0  0  0  0  0  0  0  0  0  0
    7.1514   -9.6896   16.8377 N   0  0  0  0  0  0  0  0  0  0  0  0
    0.4208   -9.3359   14.6070 C   0  0  0  0  0  0  0  0  0  0  0  0
    6.4856   -7.6196   16.3427 He  0  0  0  0  0  0  0  0  0  0  0  0
    8.5440   -8.4418   17.3562 He  0  0  0  0  0  0  0  0  0  0  0  0
   10.4813   -2.6983   24.4539 He  0  0  0  0  0  0  0  0  0  0  0  0
    1.9610   -8.8912   16.2694 He  0  0  0  0  0  0  0  0  0  0  0  0
    9.1904   -5.2370   16.5870 He  0  0  0  0  0  0  0  0  0  0  0  0
    3.9763   -8.2069   16.9404 He  0  0  0  0  0  0  0  0  0  0  0  0
    9.8937   -3.0272   23.1068 He  0  0  0  0  0  0  0  0  0  0  0  0
    9.8992   -6.1527   18.0025 He  0  0  0  0  0  0  0  0  0  0  0  0
  1  2  2  0
  1  4  3  0
  1 10  4  0
  1 16  2  0
  1 22  1  0
  2  6  1  0
  2  7  1  0
  2 11  2  0
  2 12  1  0
  2 17  1  0
  2 20  3  0
  2 24  1  0
  3  7  3  0
  3 10  4  0
  3 15  2  0
  3 25  1  0
  4  7  1  0
  4  8  2  0
  4  9  1  0
  4 13  3  0
  4 14  3  0
  4 16  1  0
  4 20  1  0
  5 14  2  0
  5 20  2  0
  5 22  3  0
  5 24  1  0
  6  8  4  0
  6 14  2  0
  6 16  3  0
  6 22  4  0
  6 25  3  0
  7 10  4  0
  7 13  1  0
  7 18  3  0
  7 22  2  0
  7 24  4  0
  7 25  4  0
  8 11  2  0
  8 12  4  0
  8 14  3  0
  8 15  3  0
  8 20  2  0
  9 16  1  0
  9 22  3  0
  9 24  2  0
 10 11  3  0
 10 15  4  0
 10 17  3  0
 10 18  4  0
 10 20  4  0
 10 24  3  0
 11 12  2  0
 11 13  3  0
 11 20  2  0
 11 23  3  0
 12 13  1  0
 12 19  1  0
 12 20  4  0
 12 26  4  0
 13 19  1  0
 13 21  3  0
 13 23  4  0
 13 26  2  0
 14 15  4  0
 14 20  1  0
 14 24  2  0
 15 22  1  0
 15 23  2  0
 15 24  2  0
 15 26  2  0
 16 17  3  0
 16 18  3  0
 16 20  4  0
 16 23  2  0
 17 20  4  0
 17 22  4  0
 17 26  4  0
 18 20  2  0
 18 24  2  0
 19 20  2  0
 19 24  3  0
 19 26  2  0
 20 24  1  0
 20 25  3  0
 22 23  3  0
 23 25  4  0
M  END
$$$$

 Created by Python create_sdf_string function

 34 33  0  0  0  0  0  0  0  0999 V2000
    6.4603   -7.6029   16.5622 C   0  0  0  0  0  0  0  0  0  0  0  0
    9.6065   -7.0939   18.8097 C   0  0  0  0  0  0  0  0  0  0  0  0
    3.5495  -10.2317   17.7723 N   0  0  0  0  0  0  0  0  0  0  0  0
   11.4094   -4.3406   25.1130 N   0  0  0  0  0  0  0  0  0  0  0  0
   11.7719   -4.3887   21.4965 C   0  0  0  0  0  0  0  0  0  0  0  0
   10.6968   -3.2289   25.4148 C   0  0  0  0  0  0  0  0  0  0  0  0
    2.3209   -9.6770   16.4646 C   0  0  0  0  0  0  0  0  0  0  0  0
    8.2734   -8.4876   17.2405 C   0  0  0  0  0  0  0  0  0  0  0  0
   10.1299   -2.5728   24.4258 C   0  0  0  0  0  0  0  0  0  0  0  0
   11.2163   -4.0080   22.8313 C   0  0  0  0  0  0  0  0  0  0  0  0
    1.2379  -10.4053   16.4076 C   0  0  0  0  0  0  0  0  0  0  0  0
   10.8741   -4.2705   20.2544 N   0  0  0  0  0  0  0  0  0  0  0  0
    2.4500   -8.9338   15.7793 C   0  0  0  0  0  0  0  0  0  0  0  0
   11.6317   -4.7685   23.8462 C   0  0  0  0  0  0  0  0  0  0  0  0
    3.9963   -8.9623   16.8379 N   0  0  0  0  0  0  0  0  0  0  0  0
    9.4575   -4.9963   16.4295 C   0  0  0  0  0  0  0  0  0  0  0  0
    0.3220  -10.3565   15.3412 C   0  0  0  0  0  0  0  0  0  0  0  0
    5.4137   -9.2220   17.3951 C   0  0  0  0  0  0  0  0  0  0  0  0
   11.1417   -3.4317   17.7806 C   0  0  0  0  0  0  0  0  0  0  0  0
   10.8119   -3.5714   16.5893 C   0  0  0  0  0  0  0  0  0  0  0  0
   10.9006   -4.2315   18.8152 C   0  0  0  0  0  0  0  0  0  0  0  0
   10.0534   -5.4927   18.3266 C   0  0  0  0  0  0  0  0  0  0  0  0
    7.8878   -6.0970   16.2875 C   0  0  0  0  0  0  0  0  0  0  0  0
    1.4475   -8.5088   14.5646 C   0  0  0  0  0  0  0  0  0  0  0  0
    7.9136   -7.2397   16.5738 N   0  0  0  0  0  0  0  0  0  0  0  0
    7.3133   -5.2687   15.6102 O   0  0  0  0  0  0  0  0  0  0  0  0
   12.3529   -4.2044   21.2546 O   0  0  0  0  0  0  0  0  0  0  0  0
    9.6668   -4.8841   16.7785 C   0  0  0  0  0  0  0  0  0  0  0  0
    4.3575   -8.3918   16.6969 C   0  0  0  0  0  0  0  0  0  0  0  0
   10.3043   -2.8863   23.1296 C   0  0  0  0  0  0  0  0  0  0  0  0
    9.8305   -5.9684   18.1449 C   0  0  0  0  0  0  0  0  0  0  0  0
    5.3968   -7.2485   16.3475 C   0  0  0  0  0  0  0  0  0  0  0  0
    6.8071   -9.1358   17.0261 C   0  0  0  0  0  0  0  0  0  0  0  0
    0.4923   -9.3546   14.4991 C   0  0  0  0  0  0  0  0  0  0  0  0
  1 25  1  0
  1 32  1  0
  1 33  1  0
  4  6  4  0
  4 14  4  0
  5 10  1  0
  5 12  1  0
  5 27  2  0
  6  9  4  0
  7 11  4  0
  7 13  4  0
  8 25  1  0
  8 33  1  0
  9 30  4  0
 10 14  4  0
 10 30  4  0
 11 17  4  0
 12 21  1  0
 13 24  4  0
 15 29  1  0
 16 28  1  0
 17 34  4  0
 18 33  1  0
 19 20  4  0
 19 21  4  0
 20 28  4  0
 21 22  4  0
 22 31  4  0
 23 25  1  0
 23 26  2  0
 24 34  4  0
 28 31  4  0
 29 32  1  0
M  END
$$$$

 Created by Python create_sdf_string function

 34 82  0  0  0  0  0  0  0  0999 V2000
    5.9763   -7.3833   17.9265 I   0  0  0  0  0  0  0  0  0  0  0  0
    9.3667   -6.9880   18.0311 Cl  0  0  0  0  0  0  0  0  0  0  0  0
   11.1583   -4.1318   24.5850 N   0  0  0  0  0  0  0  0  0  0  0  0
    1.9444   -9.5679   16.7974 C   0  0  0  0  0  0  0  0  0  0  0  0
    8.4297   -8.0216   16.8246 C   0  0  0  0  0  0  0  0  0  0  0  0
   11.4628   -4.1394   23.1974 C   0  0  0  0  0  0  0  0  0  0  0  0
    1.5861  -10.3760   16.6287 C   0  0  0  0  0  0  0  0  0  0  0  0
   11.2387   -3.9042   20.3520 O   0  0  0  0  0  0  0  0  0  0  0  0
   11.6765   -4.0717   24.3186 C   0  0  0  0  0  0  0  0  0  0  0  0
    3.8107   -9.4507   16.7381 Br  0  0  0  0  0  0  0  0  0  0  0  0
    9.3694   -3.3649   15.8093 C   0  0  0  0  0  0  0  0  0  0  0  0
    0.3515  -10.8272   15.7663 C   0  0  0  0  0  0  0  0  0  0  0  0
    6.5056  -10.6393   18.7124 C   0  0  0  0  0  0  0  0  0  0  0  0
   11.5526   -3.0793   17.8344 C   0  0  0  0  0  0  0  0  0  0  0  0
   10.7363   -3.3973   16.7312 C   0  0  0  0  0  0  0  0  0  0  0  0
   10.8751   -3.9219   18.7312 C   0  0  0  0  0  0  0  0  0  0  0  0
    9.8442   -5.0411   17.0874 C   0  0  0  0  0  0  0  0  0  0  0  0
    7.2820   -5.8732   16.1354 C   0  0  0  0  0  0  0  0  0  0  0  0
    1.4013   -9.0374   14.8271 C   0  0  0  0  0  0  0  0  0  0  0  0
    7.6361   -8.0469   15.8417 F   0  0  0  0  0  0  0  0  0  0  0  0
    6.9476   -5.3289   15.5357 O   0  0  0  0  0  0  0  0  0  0  0  0
   11.9602   -3.3998   20.8178 N   0  0  0  0  0  0  0  0  0  0  0  0
   10.0696   -5.3196   17.4898 Se  0  0  0  0  0  0  0  0  0  0  0  0
    9.7235   -6.3535   18.1183 C   0  0  0  0  0  0  0  0  0  0  0  0
    6.4986   -9.3788   16.6884 N   0  0  0  0  0  0  0  0  0  0  0  0
    0.4918   -9.5184   14.2853 C   0  0  0  0  0  0  0  0  0  0  0  0
    2.8090   -8.4954   17.9577 He  0  0  0  0  0  0  0  0  0  0  0  0
   11.2607   -4.2684   22.2826 He  0  0  0  0  0  0  0  0  0  0  0  0
   10.6338   -3.0078   25.3246 He  0  0  0  0  0  0  0  0  0  0  0  0
   10.4067   -2.7971   24.4587 He  0  0  0  0  0  0  0  0  0  0  0  0
    1.5132  -11.1049   14.6766 He  0  0  0  0  0  0  0  0  0  0  0  0
    3.7372   -8.9682   15.7453 He  0  0  0  0  0  0  0  0  0  0  0  0
   10.1749   -2.9273   23.6015 He  0  0  0  0  0  0  0  0  0  0  0  0
    5.1168   -6.9405   15.4348 He  0  0  0  0  0  0  0  0  0  0  0  0
  1  2  1  0
  1  4  1  0
  1  6  3  0
  1  8  3  0
  1  9  2  0
  1 11  1  0
  1 12  3  0
  1 13  2  0
  1 14  2  0
  1 15  2  0
  1 22  2  0
  1 24  4  0
  2  9  1  0
  2 22  4  0
  2 23  4  0
  2 24  1  0
  3  4  1  0
  3  9  4  0
  3 18  1  0
  3 19  4  0
  3 22  2  0
  3 25  4  0
  4  7  4  0
  4 10  3  0
  4 13  4  0
  4 17  2  0
  4 20  1  0
  5 10  2  0
  5 12  4  0
  5 18  4  0
  5 20  1  0
  5 25  4  0
  6  9  4  0
  6 22  4  0
  7 10  3  0
  7 13  1  0
  7 17  3  0
  8  9  2  0
  8 11  2  0
  8 15  2  0
  8 25  2  0
  9 13  1  0
  9 17  3  0
  9 19  1  0
 10 11  4  0
 10 24  2  0
 11 16  2  0
 11 23  3  0
 12 13  2  0
 12 18  1  0
 12 19  1  0
 12 20  3  0
 12 23  2  0
 12 26  4  0
 13 15  2  0
 13 17  1  0
 13 20  2  0
 13 24  4  0
 13 25  4  0
 14 15  4  0
 14 18  3  0
 14 20  2  0
 14 22  3  0
 14 25  2  0
 15 17  1  0
 15 20  3  0
 15 23  4  0
 15 25  4  0
 16 23  4  0
 18 20  4  0
 18 21  1  0
 18 22  4  0
 18 26  4  0
 19 26  4  0
 20 21  4  0
 20 22  1  0
 20 23  1  0
 20 24  3  0
 21 22  4  0
 22 25  1  0
 23 24  4  0
 23 25  4  0
M  END
$$$$

 Created by Python create_sdf_string function

 34 36  0  0  0  0  0  0  0  0999 V2000
    5.8225   -7.8839   17.1704 C   0  0  0  0  0  0  0  0  0  0  0  0
    9.5257   -7.0884   18.3414 C   0  0  0  0  0  0  0  0  0  0  0  0
    3.2978   -8.8613   16.8704 C   0  0  0  0  0  0  0  0  0  0  0  0
   11.4329   -4.1052   25.3056 N   0  0  0  0  0  0  0  0  0  0  0  0
   11.4781   -4.2642   21.7110 C   0  0  0  0  0  0  0  0  0  0  0  0
   10.5735   -3.1666   25.5328 C   0  0  0  0  0  0  0  0  0  0  0  0
    2.1112   -9.5309   16.5417 C   0  0  0  0  0  0  0  0  0  0  0  0
    8.0067   -8.3473   16.7331 C   0  0  0  0  0  0  0  0  0  0  0  0
    9.9725   -2.4920   24.5778 C   0  0  0  0  0  0  0  0  0  0  0  0
   11.1522   -3.8677   23.0781 C   0  0  0  0  0  0  0  0  0  0  0  0
    1.2006  -10.2714   16.7838 C   0  0  0  0  0  0  0  0  0  0  0  0
   11.0891   -4.1042   20.2815 O   0  0  0  0  0  0  0  0  0  0  0  0
    0.5909   -9.9518   15.0485 C   0  0  0  0  0  0  0  0  0  0  0  0
   11.7273   -4.5244   24.1210 C   0  0  0  0  0  0  0  0  0  0  0  0
    4.2331   -9.3809   17.3912 C   0  0  0  0  0  0  0  0  0  0  0  0
    9.5895   -3.9543   16.1299 C   0  0  0  0  0  0  0  0  0  0  0  0
    0.1799  -10.7594   15.6818 C   0  0  0  0  0  0  0  0  0  0  0  0
    5.7646   -9.3432   17.6651 C   0  0  0  0  0  0  0  0  0  0  0  0
   11.1542   -3.2352   17.9340 C   0  0  0  0  0  0  0  0  0  0  0  0
   10.7459   -3.3306   16.7454 C   0  0  0  0  0  0  0  0  0  0  0  0
   10.8686   -4.1959   18.8634 C   0  0  0  0  0  0  0  0  0  0  0  0
    9.4155   -4.9754   16.8434 C   0  0  0  0  0  0  0  0  0  0  0  0
    8.1807   -5.8961   16.2156 C   0  0  0  0  0  0  0  0  0  0  0  0
    1.6381   -9.0164   14.7003 C   0  0  0  0  0  0  0  0  0  0  0  0
    7.7008   -7.4210   16.5607 C   0  0  0  0  0  0  0  0  0  0  0  0
    7.3854   -5.3876   15.4257 O   0  0  0  0  0  0  0  0  0  0  0  0
   11.5022   -3.7171   20.8736 C   0  0  0  0  0  0  0  0  0  0  0  0
   10.1209   -5.3666   18.3465 C   0  0  0  0  0  0  0  0  0  0  0  0
    4.1552   -8.3927   16.4334 C   0  0  0  0  0  0  0  0  0  0  0  0
   10.2279   -2.7693   23.3084 C   0  0  0  0  0  0  0  0  0  0  0  0
    9.6951   -6.1570   18.2153 C   0  0  0  0  0  0  0  0  0  0  0  0
    5.4245   -7.5585   16.1376 C   0  0  0  0  0  0  0  0  0  0  0  0
    6.7177   -9.2790   17.1056 N   0  0  0  0  0  0  0  0  0  0  0  0
    0.6000   -9.7154   14.3952 C   0  0  0  0  0  0  0  0  0  0  0  0
  1 32  4  0
  2 31  1  0
  3  7  1  0
  3 29  1  0
  4  6  4  0
  4 14  4  0
  5 10  1  0
  5 27  1  0
  6  9  4  0
  7 11  4  0
  8 25  1  0
  8 33  4  0
  9 30  4  0
 10 14  4  0
 10 30  4  0
 11 17  4  0
 12 21  1  0
 12 27  1  0
 13 17  4  0
 13 24  4  0
 13 34  4  0
 15 18  4  0
 16 20  4  0
 16 22  4  0
 17 34  4  0
 18 33  4  0
 19 20  4  0
 19 21  4  0
 21 28  4  0
 22 23  4  0
 22 31  4  0
 23 25  4  0
 23 26  2  0
 24 34  4  0
 28 31  4  0
 29 32  4  0
M  END
$$$$

 Created by Python create_sdf_string function

 34 84  0  0  0  0  0  0  0  0999 V2000
    9.5359   -6.4708   17.8874 C   0  0  0  0  0  0  0  0  0  0  0  0
    2.7198  -10.3740   17.6848 C   0  0  0  0  0  0  0  0  0  0  0  0
   10.7085   -4.0390   25.4032 N   0  0  0  0  0  0  0  0  0  0  0  0
   11.0514   -3.9684   21.8445 C   0  0  0  0  0  0  0  0  0  0  0  0
   10.3679   -3.3568   25.3961 C   0  0  0  0  0  0  0  0  0  0  0  0
    2.4581   -9.5883   16.3620 P   0  0  0  0  0  0  0  0  0  0  0  0
    8.3715   -8.2322   16.3959 C   0  0  0  0  0  0  0  0  0  0  0  0
    9.8697   -2.3840   25.0651 C   0  0  0  0  0  0  0  0  0  0  0  0
   11.3557   -3.8207   23.0770 C   0  0  0  0  0  0  0  0  0  0  0  0
    1.0623   -9.8685   17.1375 C   0  0  0  0  0  0  0  0  0  0  0  0
   11.4624   -4.2331   19.9991 S   0  0  0  0  0  0  0  0  0  0  0  0
   10.8953   -4.5569   23.9281 C   0  0  0  0  0  0  0  0  0  0  0  0
   11.1247   -3.9391   15.6729 O   0  0  0  0  0  0  0  0  0  0  0  0
   -0.2160  -10.4675   15.4121 C   0  0  0  0  0  0  0  0  0  0  0  0
   10.3943   -3.4188   18.1422 C   0  0  0  0  0  0  0  0  0  0  0  0
   10.9614   -2.7025   16.7753 C   0  0  0  0  0  0  0  0  0  0  0  0
   11.3598   -4.3357   18.8531 C   0  0  0  0  0  0  0  0  0  0  0  0
    7.0427   -5.0439   16.9482 Se  0  0  0  0  0  0  0  0  0  0  0  0
    9.3495   -7.1338   16.1414 C   0  0  0  0  0  0  0  0  0  0  0  0
    7.3340   -5.7887   15.1097 O   0  0  0  0  0  0  0  0  0  0  0  0
   10.6113   -3.9924   20.4015 N   0  0  0  0  0  0  0  0  0  0  0  0
    9.7390   -5.4523   18.0216 C   0  0  0  0  0  0  0  0  0  0  0  0
    3.6121   -7.3973   16.5189 C   0  0  0  0  0  0  0  0  0  0  0  0
    9.8752   -5.9165   18.2412 C   0  0  0  0  0  0  0  0  0  0  0  0
    0.1490   -9.7346   13.8563 C   0  0  0  0  0  0  0  0  0  0  0  0
    6.2103   -9.0785   16.5749 He  0  0  0  0  0  0  0  0  0  0  0  0
    1.1055  -11.5966   13.4191 He  0  0  0  0  0  0  0  0  0  0  0  0
    4.3191   -8.5800   17.6942 He  0  0  0  0  0  0  0  0  0  0  0  0
    6.3775   -9.6929   18.2317 He  0  0  0  0  0  0  0  0  0  0  0  0
    9.6199   -5.1671   17.3069 He  0  0  0  0  0  0  0  0  0  0  0  0
    1.8315   -8.8760   14.9397 He  0  0  0  0  0  0  0  0  0  0  0  0
   10.2324   -2.9344   23.2876 He  0  0  0  0  0  0  0  0  0  0  0  0
    5.7068   -9.0221   16.0264 He  0  0  0  0  0  0  0  0  0  0  0  0
    7.2144   -8.5187   16.1404 He  0  0  0  0  0  0  0  0  0  0  0  0
  1  5  3  0
  1  8  4  0
  1  9  3  0
  1 10  2  0
  1 12  2  0
  1 13  1  0
  1 14  1  0
  1 15  3  0
  1 20  1  0
  1 22  2  0
  1 25  2  0
  2  4  3  0
  2  8  2  0
  2  9  3  0
  2 10  4  0
  2 12  3  0
  2 13  1  0
  2 14  4  0
  2 16  1  0
  2 17  1  0
  2 21  3  0
  2 23  1  0
  2 25  1  0
  3  5  4  0
  3 12  4  0
  4  6  4  0
  4 13  4  0
  4 16  4  0
  4 25  3  0
  5  8  4  0
  6 10  4  0
  6 12  1  0
  6 16  2  0
  6 19  2  0
  7 13  3  0
  7 18  2  0
  7 19  4  0
  8  9  1  0
  8 13  1  0
  8 19  4  0
  8 21  2  0
  8 22  1  0
  8 25  1  0
  9 16  1  0
  9 18  3  0
 10 18  2  0
 10 19  3  0
 10 21  1  0
 11 17  1  0
 11 18  3  0
 11 19  1  0
 11 21  3  0
 11 23  4  0
 11 24  3  0
 12 21  4  0
 13 14  1  0
 13 15  1  0
 13 16  4  0
 13 23  1  0
 13 24  3  0
 13 25  1  0
 14 19  3  0
 14 21  2  0
 14 25  4  0
 15 16  4  0
 15 17  4  0
 15 18  3  0
 15 24  2  0
 16 18  1  0
 16 19  3  0
 16 21  1  0
 16 23  1  0
 17 22  2  0
 18 19  4  0
 18 20  2  0
 18 21  1  0
 18 25  4  0
 19 24  1  0
 20 21  4  0
 20 23  3  0
 21 24  4  0
 21 25  4  0
 22 23  4  0
 22 24  4  0
M  END
$$$$

 Created by Python create_sdf_string function

 34 33  0  0  0  0  0  0  0  0999 V2000
    6.0459   -8.4052   16.3218 C   0  0  0  0  0  0  0  0  0  0  0  0
    9.2748   -7.3612   18.0587 C   0  0  0  0  0  0  0  0  0  0  0  0
    2.7439   -9.5364   17.0795 C   0  0  0  0  0  0  0  0  0  0  0  0
   10.8993   -4.3025   25.4216 N   0  0  0  0  0  0  0  0  0  0  0  0
   11.2598   -3.9902   21.8185 C   0  0  0  0  0  0  0  0  0  0  0  0
   10.2076   -3.2205   25.6990 C   0  0  0  0  0  0  0  0  0  0  0  0
    2.0122   -9.4831   16.1969 C   0  0  0  0  0  0  0  0  0  0  0  0
    8.2385   -8.3861   16.5399 C   0  0  0  0  0  0  0  0  0  0  0  0
    9.8178   -2.3127   24.7841 C   0  0  0  0  0  0  0  0  0  0  0  0
   10.8041   -3.7079   23.2252 C   0  0  0  0  0  0  0  0  0  0  0  0
    0.7994  -10.2002   16.5592 C   0  0  0  0  0  0  0  0  0  0  0  0
   11.6744   -4.4157   20.1127 C   0  0  0  0  0  0  0  0  0  0  0  0
    0.3188  -10.4711   14.0955 C   0  0  0  0  0  0  0  0  0  0  0  0
   11.2153   -4.6487   24.1622 C   0  0  0  0  0  0  0  0  0  0  0  0
    4.5745   -9.0681   17.5504 C   0  0  0  0  0  0  0  0  0  0  0  0
   10.4289   -3.7125   15.9454 C   0  0  0  0  0  0  0  0  0  0  0  0
    0.0423  -10.5332   15.5454 C   0  0  0  0  0  0  0  0  0  0  0  0
    5.8577   -8.9056   17.9028 C   0  0  0  0  0  0  0  0  0  0  0  0
   11.0070   -3.3909   18.0867 C   0  0  0  0  0  0  0  0  0  0  0  0
   10.9548   -3.3501   16.7580 C   0  0  0  0  0  0  0  0  0  0  0  0
   10.8608   -4.3152   18.8454 C   0  0  0  0  0  0  0  0  0  0  0  0
    9.4241   -4.8667   16.5719 C   0  0  0  0  0  0  0  0  0  0  0  0
    7.9711   -6.0347   16.1401 C   0  0  0  0  0  0  0  0  0  0  0  0
    1.9932   -9.1737   14.8839 C   0  0  0  0  0  0  0  0  0  0  0  0
    8.4967   -6.9747   16.8212 C   0  0  0  0  0  0  0  0  0  0  0  0
    7.1448   -5.7166   15.4069 O   0  0  0  0  0  0  0  0  0  0  0  0
   10.6014   -4.0473   20.9687 N   0  0  0  0  0  0  0  0  0  0  0  0
   10.0018   -5.6926   18.4299 C   0  0  0  0  0  0  0  0  0  0  0  0
    4.0273   -8.1704   16.2433 C   0  0  0  0  0  0  0  0  0  0  0  0
   10.0875   -2.5236   23.4545 C   0  0  0  0  0  0  0  0  0  0  0  0
    9.5814   -5.6944   17.6236 C   0  0  0  0  0  0  0  0  0  0  0  0
    5.2649   -8.6173   16.1009 C   0  0  0  0  0  0  0  0  0  0  0  0
    7.0230   -8.5759   16.4589 C   0  0  0  0  0  0  0  0  0  0  0  0
    0.7715   -9.8040   14.1855 C   0  0  0  0  0  0  0  0  0  0  0  0
  1 32  1  0
  1 33  4  0
  2 25  4  0
  3  7  1  0
  4  6  4  0
  4 14  4  0
  5 10  1  0
  5 27  1  0
  6  9  4  0
  7 11  4  0
  7 24  4  0
  8 25  4  0
  8 33  1  0
  9 30  4  0
 10 14  4  0
 10 30  4  0
 11 17  4  0
 12 21  1  0
 12 27  1  0
 13 17  4  0
 13 34  4  0
 15 18  4  0
 16 20  4  0
 16 22  4  0
 19 20  4  0
 19 21  4  0
 21 28  4  0
 22 31  4  0
 23 25  4  0
 23 26  2  0
 24 34  4  0
 28 31  4  0
 29 32  4  0
M  END
$$$$

 Created by Python create_sdf_string function

 34 73  0  0  0  0  0  0  0  0999 V2000
    9.7769   -8.3255   17.7861 S   0  0  0  0  0  0  0  0  0  0  0  0
   10.7896   -3.7812   24.9861 N   0  0  0  0  0  0  0  0  0  0  0  0
   10.8144   -3.8171   21.2864 C   0  0  0  0  0  0  0  0  0  0  0  0
   10.1512   -2.9420   25.7961 C   0  0  0  0  0  0  0  0  0  0  0  0
    2.3010  -10.0198   15.8283 C   0  0  0  0  0  0  0  0  0  0  0  0
    8.5483   -8.6078   16.8576 C   0  0  0  0  0  0  0  0  0  0  0  0
    9.9341   -1.7197   24.6448 C   0  0  0  0  0  0  0  0  0  0  0  0
   10.9033   -3.4919   23.0848 O   0  0  0  0  0  0  0  0  0  0  0  0
    0.5873  -10.0599   16.6592 C   0  0  0  0  0  0  0  0  0  0  0  0
   12.2641   -4.5636   19.7877 C   0  0  0  0  0  0  0  0  0  0  0  0
    1.1968  -11.0640   12.5015 C   0  0  0  0  0  0  0  0  0  0  0  0
    5.3728   -9.1816   17.2887 C   0  0  0  0  0  0  0  0  0  0  0  0
    9.8162   -3.0515   15.4398 C   0  0  0  0  0  0  0  0  0  0  0  0
   10.8412   -3.0629   16.7409 F   0  0  0  0  0  0  0  0  0  0  0  0
   11.4345   -4.0133   19.0195 C   0  0  0  0  0  0  0  0  0  0  0  0
   10.4506   -4.8547   17.3351 O   0  0  0  0  0  0  0  0  0  0  0  0
    1.8799   -9.4851   14.8642 C   0  0  0  0  0  0  0  0  0  0  0  0
    7.2584   -5.8783   15.6614 O   0  0  0  0  0  0  0  0  0  0  0  0
   11.0630   -2.8137   20.2997 N   0  0  0  0  0  0  0  0  0  0  0  0
    9.9574   -5.8143   18.6470 C   0  0  0  0  0  0  0  0  0  0  0  0
   10.2211   -2.1352   23.4322 Cl  0  0  0  0  0  0  0  0  0  0  0  0
    9.5499   -5.2468   17.2329 C   0  0  0  0  0  0  0  0  0  0  0  0
    6.9640   -8.3090   16.4829 C   0  0  0  0  0  0  0  0  0  0  0  0
    6.4806   -7.7356   15.8686 O   0  0  0  0  0  0  0  0  0  0  0  0
    0.6371   -9.7618   14.3721 C   0  0  0  0  0  0  0  0  0  0  0  0
    6.0906   -7.8241   16.3489 He  0  0  0  0  0  0  0  0  0  0  0  0
    2.1151   -9.7517   16.9075 He  0  0  0  0  0  0  0  0  0  0  0  0
   11.4633   -4.7837   24.5738 He  0  0  0  0  0  0  0  0  0  0  0  0
   -0.0846  -10.6341   15.7464 He  0  0  0  0  0  0  0  0  0  0  0  0
    4.1517   -8.5782   18.6927 He  0  0  0  0  0  0  0  0  0  0  0  0
   10.8729   -3.1383   17.8940 He  0  0  0  0  0  0  0  0  0  0  0  0
    7.5976   -5.8701   15.1051 He  0  0  0  0  0  0  0  0  0  0  0  0
    7.9161   -7.5804   17.6469 He  0  0  0  0  0  0  0  0  0  0  0  0
    3.7222   -7.1574   17.0691 He  0  0  0  0  0  0  0  0  0  0  0  0
  1  2  4  0
  1  9  1  0
  1 10  1  0
  1 13  1  0
  1 15  4  0
  1 17  3  0
  1 20  3  0
  2  4  4  0
  2 20  2  0
  3  4  2  0
  3  5  2  0
  3  8  1  0
  3 11  2  0
  3 17  3  0
  3 22  3  0
  4  8  1  0
  4  9  3  0
  4 25  2  0
  5  6  4  0
  5  9  4  0
  5 17  4  0
  5 23  1  0
  6 13  4  0
  6 16  3  0
  7 11  4  0
  7 12  3  0
  7 13  2  0
  7 21  4  0
  8 19  3  0
  8 21  4  0
  9 25  2  0
 10 12  4  0
 10 15  1  0
 10 16  3  0
 10 19  2  0
 10 20  3  0
 10 21  3  0
 11 13  3  0
 11 21  4  0
 11 22  2  0
 12 15  3  0
 12 16  2  0
 12 18  2  0
 12 19  2  0
 12 21  4  0
 12 23  2  0
 13 14  3  0
 13 16  4  0
 13 18  2  0
 13 19  1  0
 13 20  3  0
 13 22  3  0
 13 23  3  0
 13 25  2  0
 14 15  4  0
 14 17  1  0
 14 19  2  0
 15 16  3  0
 15 19  2  0
 15 20  4  0
 15 23  1  0
 16 21  3  0
 16 25  1  0
 17 23  2  0
 17 25  4  0
 18 20  2  0
 18 22  2  0
 18 23  4  0
 19 25  3  0
 20 22  4  0
 20 23  1  0
 22 24  4  0
 24 25  4  0
M  END
$$$$

 Created by Python create_sdf_string function

 34 35  0  0  0  0  0  0  0  0999 V2000
    6.3666   -7.9017   16.6806 C   0  0  0  0  0  0  0  0  0  0  0  0
    9.3094   -7.6430   18.0022 C   0  0  0  0  0  0  0  0  0  0  0  0
    2.7082   -9.4005   17.1653 C   0  0  0  0  0  0  0  0  0  0  0  0
   10.7939   -3.9876   25.3334 N   0  0  0  0  0  0  0  0  0  0  0  0
   10.9606   -3.9859   21.7399 C   0  0  0  0  0  0  0  0  0  0  0  0
   10.1815   -2.8209   25.6373 C   0  0  0  0  0  0  0  0  0  0  0  0
    1.8104   -9.5995   16.1380 C   0  0  0  0  0  0  0  0  0  0  0  0
    8.2557   -8.5492   16.9192 C   0  0  0  0  0  0  0  0  0  0  0  0
    9.8662   -1.9017   24.6378 C   0  0  0  0  0  0  0  0  0  0  0  0
   10.7873   -3.4600   23.1919 C   0  0  0  0  0  0  0  0  0  0  0  0
    0.6998  -10.1766   16.4991 C   0  0  0  0  0  0  0  0  0  0  0  0
   11.8676   -4.1761   19.9741 C   0  0  0  0  0  0  0  0  0  0  0  0
    0.1806  -10.5890   13.9148 C   0  0  0  0  0  0  0  0  0  0  0  0
   11.1542   -4.3712   24.1779 C   0  0  0  0  0  0  0  0  0  0  0  0
    5.2072   -9.3075   17.5941 C   0  0  0  0  0  0  0  0  0  0  0  0
    9.8044   -3.7834   15.9370 C   0  0  0  0  0  0  0  0  0  0  0  0
   -0.1807  -10.6057   15.5711 N   0  0  0  0  0  0  0  0  0  0  0  0
    4.0847   -8.8746   17.0979 C   0  0  0  0  0  0  0  0  0  0  0  0
   11.1040   -3.2387   17.8742 C   0  0  0  0  0  0  0  0  0  0  0  0
   10.8556   -3.1615   16.8793 C   0  0  0  0  0  0  0  0  0  0  0  0
   11.0481   -4.0658   18.8561 C   0  0  0  0  0  0  0  0  0  0  0  0
    9.4326   -5.0713   16.8062 C   0  0  0  0  0  0  0  0  0  0  0  0
    8.0309   -5.9839   16.2324 C   0  0  0  0  0  0  0  0  0  0  0  0
    1.8636   -9.4636   14.7664 C   0  0  0  0  0  0  0  0  0  0  0  0
    8.2674   -7.3126   17.0503 C   0  0  0  0  0  0  0  0  0  0  0  0
    7.4013   -5.6218   15.5593 O   0  0  0  0  0  0  0  0  0  0  0  0
   11.1864   -3.3373   20.6903 N   0  0  0  0  0  0  0  0  0  0  0  0
   10.2402   -5.5282   18.5792 C   0  0  0  0  0  0  0  0  0  0  0  0
    4.2800   -7.8743   16.3746 C   0  0  0  0  0  0  0  0  0  0  0  0
   10.1800   -2.1690   23.3648 C   0  0  0  0  0  0  0  0  0  0  0  0
    9.5851   -5.5087   17.4324 C   0  0  0  0  0  0  0  0  0  0  0  0
    6.5208   -8.4421   17.1879 C   0  0  0  0  0  0  0  0  0  0  0  0
    5.7953   -7.5034   16.2453 C   0  0  0  0  0  0  0  0  0  0  0  0
    0.9560  -10.0595   13.9366 C   0  0  0  0  0  0  0  0  0  0  0  0
  1 32  4  0
  1 33  4  0
  2 25  4  0
  3  7  1  0
  3 18  1  0
  4  6  4  0
  4 14  4  0
  5 10  1  0
  5 27  1  0
  6  9  4  0
  7 11  4  0
  7 24  4  0
  8 25  1  0
  9 30  4  0
 10 14  4  0
 10 30  4  0
 11 17  4  0
 12 21  1  0
 12 27  1  0
 13 17  4  0
 13 34  4  0
 15 18  4  0
 15 32  4  0
 16 20  4  0
 16 22  4  0
 18 29  4  0
 19 20  4  0
 19 21  4  0
 21 28  4  0
 22 31  4  0
 23 25  4  0
 23 26  2  0
 24 34  4  0
 28 31  4  0
 29 33  4  0
M  END
$$$$

 Created by Python create_sdf_string function

 34106  0  0  0  0  0  0  0  0999 V2000
    5.4922   -5.9689   16.6161 N   0  0  0  0  0  0  0  0  0  0  0  0
    9.0938   -7.0583   18.5609 C   0  0  0  0  0  0  0  0  0  0  0  0
   10.3011   -3.8653   25.3912 N   0  0  0  0  0  0  0  0  0  0  0  0
   10.3803   -3.0137   21.4005 C   0  0  0  0  0  0  0  0  0  0  0  0
   10.2199   -3.1334   25.4342 C   0  0  0  0  0  0  0  0  0  0  0  0
    2.1149   -9.3142   15.8446 C   0  0  0  0  0  0  0  0  0  0  0  0
    8.0590   -8.7365   16.5292 C   0  0  0  0  0  0  0  0  0  0  0  0
    9.8485   -2.0779   24.5583 C   0  0  0  0  0  0  0  0  0  0  0  0
   10.6057   -3.4733   22.8680 O   0  0  0  0  0  0  0  0  0  0  0  0
    0.8058  -10.1942   16.4480 C   0  0  0  0  0  0  0  0  0  0  0  0
   11.8591   -3.9218   20.1869 C   0  0  0  0  0  0  0  0  0  0  0  0
   11.5491   -4.4894   24.3622 C   0  0  0  0  0  0  0  0  0  0  0  0
    5.7628   -9.7929   17.8439 Cl  0  0  0  0  0  0  0  0  0  0  0  0
   -0.1763  -11.0203   15.9185 N   0  0  0  0  0  0  0  0  0  0  0  0
   11.4242   -3.5960   17.3638 C   0  0  0  0  0  0  0  0  0  0  0  0
   10.7599   -2.6986   16.9575 C   0  0  0  0  0  0  0  0  0  0  0  0
   11.3077   -4.2678   18.6630 C   0  0  0  0  0  0  0  0  0  0  0  0
    9.2862   -6.0185   17.2226 O   0  0  0  0  0  0  0  0  0  0  0  0
    8.8659   -4.1375   16.0973 C   0  0  0  0  0  0  0  0  0  0  0  0
    1.5411   -9.9897   14.3747 C   0  0  0  0  0  0  0  0  0  0  0  0
    6.8753   -5.9602   17.2952 N   0  0  0  0  0  0  0  0  0  0  0  0
    6.9903   -5.7128   15.6728 O   0  0  0  0  0  0  0  0  0  0  0  0
   10.5478   -4.1230   20.7516 S   0  0  0  0  0  0  0  0  0  0  0  0
    9.8423   -1.9137   23.1826 C   0  0  0  0  0  0  0  0  0  0  0  0
    9.9585   -5.6232   17.4659 C   0  0  0  0  0  0  0  0  0  0  0  0
    6.4681   -7.1145   17.0618 N   0  0  0  0  0  0  0  0  0  0  0  0
    0.7706   -9.9840   13.5942 C   0  0  0  0  0  0  0  0  0  0  0  0
    3.9446   -8.5605   16.8308 He  0  0  0  0  0  0  0  0  0  0  0  0
    0.6815  -11.2984   13.4947 He  0  0  0  0  0  0  0  0  0  0  0  0
   10.7212   -3.3285   15.1298 He  0  0  0  0  0  0  0  0  0  0  0  0
    4.9047   -8.4222   17.4039 He  0  0  0  0  0  0  0  0  0  0  0  0
   10.2266   -5.7474   18.7897 He  0  0  0  0  0  0  0  0  0  0  0  0
    4.4780   -6.2561   16.4112 He  0  0  0  0  0  0  0  0  0  0  0  0
    4.4729   -7.8637   16.1624 He  0  0  0  0  0  0  0  0  0  0  0  0
  1  3  4  0
  1  4  1  0
  1  5  1  0
  1  6  3  0
  1 15  2  0
  1 16  1  0
  1 17  4  0
  1 20  2  0
  1 21  3  0
  1 23  3  0
  1 24  4  0
  1 26  4  0
  2  5  3  0
  2  8  2  0
  2 15  3  0
  2 16  2  0
  2 18  3  0
  2 20  4  0
  2 21  2  0
  2 22  4  0
  2 24  2  0
  3  5  4  0
  3 12  4  0
  3 13  3  0
  3 17  3  0
  3 18  4  0
  3 19  1  0
  3 23  2  0
  3 26  1  0
  4  8  2  0
  4  9  1  0
  4 19  3  0
  4 25  4  0
  4 27  1  0
  5  8  4  0
  5  9  4  0
  5 10  3  0
  5 11  4  0
  5 13  1  0
  5 17  2  0
  5 21  3  0
  5 23  2  0
  6 10  4  0
  6 18  1  0
  6 19  1  0
  6 20  4  0
  6 26  4  0
  7 12  4  0
  7 18  1  0
  7 21  1  0
  7 23  3  0
  7 24  3  0
  7 26  1  0
  8 19  4  0
  8 24  4  0
  8 26  2  0
  9 14  3  0
  9 24  4  0
 10 11  4  0
 10 13  1  0
 10 14  4  0
 10 18  2  0
 10 21  2  0
 10 27  4  0
 11 17  1  0
 11 19  1  0
 11 21  2  0
 12 22  3  0
 13 15  4  0
 13 17  4  0
 13 18  3  0
 13 20  4  0
 13 25  3  0
 14 17  4  0
 14 19  2  0
 14 23  1  0
 14 24  3  0
 15 17  4  0
 15 21  3  0
 16 23  4  0
 16 26  4  0
 17 18  1  0
 17 19  1  0
 17 25  3  0
 17 27  1  0
 18 19  4  0
 18 21  1  0
 18 24  3  0
 18 25  4  0
 18 27  2  0
 19 23  4  0
 19 25  1  0
 19 26  1  0
 19 27  2  0
 20 21  2  0
 20 22  2  0
 20 23  4  0
 20 25  4  0
 20 26  3  0
 20 27  4  0
 21 25  2  0
 21 26  4  0
 22 23  3  0
 22 26  3  0
 23 26  4  0
 25 27  2  0
M  END
$$$$

 Created by Python create_sdf_string function

 34 34  0  0  0  0  0  0  0  0999 V2000
    5.7867   -7.1469   16.2886 C   0  0  0  0  0  0  0  0  0  0  0  0
    9.5394   -7.0020   18.4858 C   0  0  0  0  0  0  0  0  0  0  0  0
    3.2441   -9.0403   16.6384 C   0  0  0  0  0  0  0  0  0  0  0  0
   10.6678   -4.0470   25.2802 N   0  0  0  0  0  0  0  0  0  0  0  0
   11.1409   -3.6499   21.6774 C   0  0  0  0  0  0  0  0  0  0  0  0
   10.0298   -2.9088   25.5624 C   0  0  0  0  0  0  0  0  0  0  0  0
    2.0285   -9.4441   15.8748 C   0  0  0  0  0  0  0  0  0  0  0  0
    7.9008   -8.5438   16.9349 C   0  0  0  0  0  0  0  0  0  0  0  0
    9.7114   -1.9609   24.6172 C   0  0  0  0  0  0  0  0  0  0  0  0
   10.6840   -3.3475   23.0763 C   0  0  0  0  0  0  0  0  0  0  0  0
    0.9998  -10.2187   16.4691 C   0  0  0  0  0  0  0  0  0  0  0  0
   11.4286   -3.9486   20.2937 C   0  0  0  0  0  0  0  0  0  0  0  0
    0.0287  -10.7285   14.4467 C   0  0  0  0  0  0  0  0  0  0  0  0
   11.0275   -4.3237   24.0315 C   0  0  0  0  0  0  0  0  0  0  0  0
    5.2104   -9.0814   17.5760 C   0  0  0  0  0  0  0  0  0  0  0  0
   10.8081   -3.3883   15.5184 C   0  0  0  0  0  0  0  0  0  0  0  0
    0.0396  -10.8245   15.8168 N   0  0  0  0  0  0  0  0  0  0  0  0
    4.4398   -8.8725   17.0487 C   0  0  0  0  0  0  0  0  0  0  0  0
   11.2075   -3.5533   17.8580 C   0  0  0  0  0  0  0  0  0  0  0  0
   11.0521   -3.3593   16.8124 C   0  0  0  0  0  0  0  0  0  0  0  0
   10.7883   -4.3793   18.6495 C   0  0  0  0  0  0  0  0  0  0  0  0
    8.8518   -6.1804   17.3857 C   0  0  0  0  0  0  0  0  0  0  0  0
    9.4700   -4.4005   16.2694 C   0  0  0  0  0  0  0  0  0  0  0  0
    1.7938   -9.3114   14.5436 C   0  0  0  0  0  0  0  0  0  0  0  0
    7.8400   -6.4523   16.7706 N   0  0  0  0  0  0  0  0  0  0  0  0
    7.0069   -5.6263   15.5575 O   0  0  0  0  0  0  0  0  0  0  0  0
   10.7805   -4.4379   20.6578 N   0  0  0  0  0  0  0  0  0  0  0  0
   10.1540   -5.7566   18.8730 C   0  0  0  0  0  0  0  0  0  0  0  0
    4.4454   -7.4548   16.0025 C   0  0  0  0  0  0  0  0  0  0  0  0
   10.0057   -2.1462   23.3123 C   0  0  0  0  0  0  0  0  0  0  0  0
    9.5118   -5.3410   17.2957 C   0  0  0  0  0  0  0  0  0  0  0  0
    6.5968   -7.4788   16.8160 C   0  0  0  0  0  0  0  0  0  0  0  0
    4.5931   -7.6431   16.0722 C   0  0  0  0  0  0  0  0  0  0  0  0
    0.8546   -9.9883   13.8905 C   0  0  0  0  0  0  0  0  0  0  0  0
  1 32  4  0
  1 33  4  0
  2 22  4  0
  2 28  4  0
  3  7  1  0
  3 18  1  0
  4  6  4  0
  4 14  4  0
  5 10  1  0
  5 27  1  0
  6  9  4  0
  7 11  4  0
  7 24  4  0
  8 32  1  0
  9 30  4  0
 10 14  4  0
 10 30  4  0
 11 17  4  0
 12 21  1  0
 12 27  1  0
 13 17  4  0
 13 34  4  0
 15 18  4  0
 16 20  4  0
 19 20  4  0
 19 21  4  0
 20 23  4  0
 21 28  4  0
 22 25  1  0
 22 31  4  0
 23 31  4  0
 24 34  4  0
 25 32  4  0
 29 33  4  0
M  END
$$$$

 Created by Python create_sdf_string function

 34 57  0  0  0  0  0  0  0  0999 V2000
    5.8705   -7.7239   16.0671 S   0  0  0  0  0  0  0  0  0  0  0  0
    2.6177   -8.3621   16.1923 Cl  0  0  0  0  0  0  0  0  0  0  0  0
   11.0978   -4.3444   25.1953 N   0  0  0  0  0  0  0  0  0  0  0  0
    1.6804   -9.0309   16.1706 C   0  0  0  0  0  0  0  0  0  0  0  0
    8.2019   -8.1004   17.1900 C   0  0  0  0  0  0  0  0  0  0  0  0
   10.5977   -3.4131   22.9151 C   0  0  0  0  0  0  0  0  0  0  0  0
    0.9966  -10.2973   15.9778 C   0  0  0  0  0  0  0  0  0  0  0  0
   11.0407   -4.4013   20.3905 C   0  0  0  0  0  0  0  0  0  0  0  0
   10.9225   -4.2662   23.6354 C   0  0  0  0  0  0  0  0  0  0  0  0
    3.6249   -9.3998   16.5665 C   0  0  0  0  0  0  0  0  0  0  0  0
   11.2854   -3.8058   17.3506 C   0  0  0  0  0  0  0  0  0  0  0  0
   10.8412   -2.8155   16.7673 S   0  0  0  0  0  0  0  0  0  0  0  0
   10.6547   -4.5492   18.9856 F   0  0  0  0  0  0  0  0  0  0  0  0
    9.7319   -6.2640   17.4159 N   0  0  0  0  0  0  0  0  0  0  0  0
    1.7330   -9.5167   14.6043 C   0  0  0  0  0  0  0  0  0  0  0  0
    7.6041   -5.8704   16.3729 C   0  0  0  0  0  0  0  0  0  0  0  0
    7.0723   -5.7369   15.1717 O   0  0  0  0  0  0  0  0  0  0  0  0
   10.1585   -5.5737   18.5576 C   0  0  0  0  0  0  0  0  0  0  0  0
    5.5516   -7.8878   15.4968 C   0  0  0  0  0  0  0  0  0  0  0  0
    9.2021   -5.3555   17.3174 Cl  0  0  0  0  0  0  0  0  0  0  0  0
    6.7231   -8.8660   16.6936 N   0  0  0  0  0  0  0  0  0  0  0  0
    3.0231   -6.8868   16.8092 F   0  0  0  0  0  0  0  0  0  0  0  0
    1.2038   -9.9304   13.5559 C   0  0  0  0  0  0  0  0  0  0  0  0
    8.4923   -7.3473   17.2422 He  0  0  0  0  0  0  0  0  0  0  0  0
   11.0245   -3.5395   22.1485 He  0  0  0  0  0  0  0  0  0  0  0  0
   10.4287   -2.3880   25.6616 He  0  0  0  0  0  0  0  0  0  0  0  0
    9.9420   -2.0617   24.4566 He  0  0  0  0  0  0  0  0  0  0  0  0
    0.1059  -11.6458   14.6955 He  0  0  0  0  0  0  0  0  0  0  0  0
    5.0073  -10.3302   16.8206 He  0  0  0  0  0  0  0  0  0  0  0  0
   11.1922   -3.1048   15.1660 He  0  0  0  0  0  0  0  0  0  0  0  0
   -0.0174  -10.6493   15.8281 He  0  0  0  0  0  0  0  0  0  0  0  0
    8.3049   -5.0291   16.3748 He  0  0  0  0  0  0  0  0  0  0  0  0
   11.5699   -2.7218   21.2646 He  0  0  0  0  0  0  0  0  0  0  0  0
   10.1584   -2.3639   23.2154 He  0  0  0  0  0  0  0  0  0  0  0  0
  1  5  4  0
  1 13  3  0
  1 14  3  0
  1 19  4  0
  1 20  3  0
  1 21  4  0
  1 22  1  0
  1 23  4  0
  2  3  4  0
  2  7  1  0
  2 10  4  0
  2 12  3  0
  2 15  3  0
  3  9  4  0
  4  7  4  0
  4  8  4  0
  4 14  2  0
  4 15  4  0
  4 16  1  0
  4 17  4  0
  4 22  2  0
  5  7  2  0
  5 15  2  0
  5 21  1  0
  6 10  3  0
  6 14  1  0
  6 21  2  0
  6 23  1  0
  7 10  4  0
  7 16  1  0
  7 22  1  0
  8 10  3  0
  9 14  3  0
  9 16  4  0
 10 11  2  0
 10 14  3  0
 10 17  2  0
 10 19  4  0
 11 12  2  0
 11 16  1  0
 11 22  4  0
 12 19  4  0
 12 21  4  0
 13 14  4  0
 13 16  4  0
 13 18  4  0
 14 16  1  0
 14 18  3  0
 15 20  1  0
 15 23  1  0
 16 21  4  0
 16 22  3  0
 16 23  3  0
 18 19  1  0
 18 22  4  0
 20 22  4  0
 21 22  3  0
M  END
$$$$

 Created by Python create_sdf_string function

 34 32  0  0  0  0  0  0  0  0999 V2000
    5.9103   -7.7987   16.3413 C   0  0  0  0  0  0  0  0  0  0  0  0
    8.6358   -6.8311   17.3159 C   0  0  0  0  0  0  0  0  0  0  0  0
    3.0910   -8.9447   16.4620 C   0  0  0  0  0  0  0  0  0  0  0  0
   10.8777   -4.0342   25.2043 N   0  0  0  0  0  0  0  0  0  0  0  0
   11.0291   -4.1718   21.5018 C   0  0  0  0  0  0  0  0  0  0  0  0
   10.2569   -2.8517   25.5045 C   0  0  0  0  0  0  0  0  0  0  0  0
    1.8869   -9.3154   15.8967 C   0  0  0  0  0  0  0  0  0  0  0  0
    7.5559   -8.6062   17.0934 C   0  0  0  0  0  0  0  0  0  0  0  0
    9.9048   -2.0415   24.5252 C   0  0  0  0  0  0  0  0  0  0  0  0
   10.7361   -3.4306   22.9464 C   0  0  0  0  0  0  0  0  0  0  0  0
    0.8827  -10.0476   16.5053 C   0  0  0  0  0  0  0  0  0  0  0  0
   11.0061   -4.1410   20.4270 C   0  0  0  0  0  0  0  0  0  0  0  0
   -0.0956  -10.7764   14.6413 C   0  0  0  0  0  0  0  0  0  0  0  0
   11.1194   -4.4065   24.0339 C   0  0  0  0  0  0  0  0  0  0  0  0
    5.1817   -9.7673   17.0042 C   0  0  0  0  0  0  0  0  0  0  0  0
   11.0546   -3.5855   15.7846 C   0  0  0  0  0  0  0  0  0  0  0  0
   -0.0510  -10.7707   16.0592 C   0  0  0  0  0  0  0  0  0  0  0  0
    4.0984   -9.2644   16.6646 C   0  0  0  0  0  0  0  0  0  0  0  0
   11.0201   -3.6418   17.4679 C   0  0  0  0  0  0  0  0  0  0  0  0
   11.2299   -3.1224   17.6832 N   0  0  0  0  0  0  0  0  0  0  0  0
   10.7176   -4.6743   19.1579 C   0  0  0  0  0  0  0  0  0  0  0  0
    9.3709   -6.1076   17.7897 N   0  0  0  0  0  0  0  0  0  0  0  0
    8.6105   -5.0380   16.0962 N   0  0  0  0  0  0  0  0  0  0  0  0
    1.5957   -9.2593   14.6258 C   0  0  0  0  0  0  0  0  0  0  0  0
    7.7125   -6.3197   16.2308 C   0  0  0  0  0  0  0  0  0  0  0  0
    7.0382   -5.6771   15.3929 O   0  0  0  0  0  0  0  0  0  0  0  0
   11.0028   -3.2637   20.9027 N   0  0  0  0  0  0  0  0  0  0  0  0
   10.1150   -5.6921   18.6781 C   0  0  0  0  0  0  0  0  0  0  0  0
    5.3203   -7.8119   15.9748 C   0  0  0  0  0  0  0  0  0  0  0  0
   10.1675   -2.2624   23.3082 C   0  0  0  0  0  0  0  0  0  0  0  0
    9.7158   -5.0208   16.9641 C   0  0  0  0  0  0  0  0  0  0  0  0
    6.7588   -8.2474   16.7187 C   0  0  0  0  0  0  0  0  0  0  0  0
    3.4181   -7.6669   16.3216 C   0  0  0  0  0  0  0  0  0  0  0  0
    0.7357  -10.0358   13.9634 C   0  0  0  0  0  0  0  0  0  0  0  0
  1 29  4  0
  1 32  4  0
  2 22  4  0
  2 25  4  0
  3  7  1  0
  3 18  4  0
  4  6  4  0
  4 14  4  0
  5 10  1  0
  5 12  1  0
  6  9  4  0
  7 11  4  0
  7 24  4  0
  8 32  1  0
  9 30  4  0
 10 14  4  0
 10 30  4  0
 11 17  4  0
 12 21  1  0
 12 27  1  0
 13 17  4  0
 13 34  4  0
 15 18  4  0
 16 19  1  0
 19 20  4  0
 21 28  4  0
 22 28  4  0
 22 31  4  0
 23 25  4  0
 23 31  4  0
 24 34  4  0
 25 26  4  0
M  END
$$$$

 Created by Python create_sdf_string function

 34 66  0  0  0  0  0  0  0  0999 V2000
    8.8534   -5.1070   17.7977 C   0  0  0  0  0  0  0  0  0  0  0  0
    2.1776   -9.7312   16.6590 C   0  0  0  0  0  0  0  0  0  0  0  0
   10.6454   -3.8294   25.2334 N   0  0  0  0  0  0  0  0  0  0  0  0
   10.6902   -3.1015   22.3194 C   0  0  0  0  0  0  0  0  0  0  0  0
    9.9067   -3.3217   25.0889 C   0  0  0  0  0  0  0  0  0  0  0  0
    2.0227   -9.1996   16.1421 C   0  0  0  0  0  0  0  0  0  0  0  0
    7.4868   -8.5925   16.7821 C   0  0  0  0  0  0  0  0  0  0  0  0
   10.0680   -2.6569   24.5940 C   0  0  0  0  0  0  0  0  0  0  0  0
    0.7208  -10.1241   16.0998 C   0  0  0  0  0  0  0  0  0  0  0  0
   11.1092   -4.4133   20.0142 C   0  0  0  0  0  0  0  0  0  0  0  0
   11.3343   -4.6126   24.0468 C   0  0  0  0  0  0  0  0  0  0  0  0
   10.2958   -2.8048   16.4316 C   0  0  0  0  0  0  0  0  0  0  0  0
    0.0175  -10.7807   16.0019 C   0  0  0  0  0  0  0  0  0  0  0  0
    3.3403   -9.1507   14.9986 C   0  0  0  0  0  0  0  0  0  0  0  0
   11.0411   -4.0453   17.6923 Br  0  0  0  0  0  0  0  0  0  0  0  0
   11.1749   -2.8192   17.9245 F   0  0  0  0  0  0  0  0  0  0  0  0
   10.6444   -4.7425   19.3275 C   0  0  0  0  0  0  0  0  0  0  0  0
   10.2482   -6.1584   16.1683 I   0  0  0  0  0  0  0  0  0  0  0  0
    1.5392   -9.1784   14.0349 C   0  0  0  0  0  0  0  0  0  0  0  0
   10.4506   -5.9441   18.5187 C   0  0  0  0  0  0  0  0  0  0  0  0
   10.1951   -2.5257   23.1064 C   0  0  0  0  0  0  0  0  0  0  0  0
    9.6028   -5.1602   16.7582 C   0  0  0  0  0  0  0  0  0  0  0  0
    6.9382   -9.2474   16.1850 C   0  0  0  0  0  0  0  0  0  0  0  0
    0.6564   -9.8628   14.2161 C   0  0  0  0  0  0  0  0  0  0  0  0
    7.3441   -8.8293   17.0862 He  0  0  0  0  0  0  0  0  0  0  0  0
   10.7854   -3.7879   22.7294 He  0  0  0  0  0  0  0  0  0  0  0  0
   -0.8093   -9.3503   15.1012 He  0  0  0  0  0  0  0  0  0  0  0  0
    4.7470   -8.6399   16.7190 He  0  0  0  0  0  0  0  0  0  0  0  0
    9.5443   -6.2576   17.0414 He  0  0  0  0  0  0  0  0  0  0  0  0
    7.1919   -5.3633   16.1430 He  0  0  0  0  0  0  0  0  0  0  0  0
    7.1131   -5.7686   15.2837 He  0  0  0  0  0  0  0  0  0  0  0  0
   10.5496   -4.0445   20.9503 He  0  0  0  0  0  0  0  0  0  0  0  0
    5.2740   -8.2186   16.7464 He  0  0  0  0  0  0  0  0  0  0  0  0
    4.6049   -5.9589   16.4516 He  0  0  0  0  0  0  0  0  0  0  0  0
  1  3  2  0
  1  6  4  0
  1 14  1  0
  1 19  2  0
  1 21  1  0
  1 24  1  0
  2  4  4  0
  2  5  4  0
  2  6  1  0
  2 12  1  0
  2 15  4  0
  2 18  3  0
  2 19  4  0
  2 21  3  0
  2 22  2  0
  3  5  4  0
  3 11  4  0
  3 14  2  0
  3 23  2  0
  4  5  4  0
  4  6  1  0
  4 15  4  0
  4 17  3  0
  4 20  3  0
  4 22  2  0
  4 24  1  0
  5 14  2  0
  6  9  4  0
  6 14  2  0
  6 19  4  0
  7  9  4  0
  7 18  3  0
  8 21  4  0
  9 12  4  0
  9 13  2  0
  9 14  4  0
 10 11  3  0
 10 13  1  0
 10 17  1  0
 11 13  4  0
 11 24  2  0
 12 16  4  0
 12 18  4  0
 12 22  2  0
 12 24  4  0
 13 14  2  0
 13 17  3  0
 14 15  4  0
 14 16  3  0
 14 17  2  0
 14 19  4  0
 14 22  3  0
 14 23  3  0
 14 24  3  0
 15 16  4  0
 15 20  1  0
 15 23  3  0
 17 18  2  0
 17 20  4  0
 18 21  2  0
 18 23  2  0
 19 24  4  0
 20 23  1  0
 21 23  3  0
 22 24  1  0
 23 24  4  0
M  END
$$$$

 Created by Python create_sdf_string function

 34 30  0  0  0  0  0  0  0  0999 V2000
    6.7922   -8.3797   17.0440 C   0  0  0  0  0  0  0  0  0  0  0  0
    9.2332   -5.9975   17.7378 C   0  0  0  0  0  0  0  0  0  0  0  0
    3.0315   -9.1252   16.6377 C   0  0  0  0  0  0  0  0  0  0  0  0
   10.7550   -4.2497   25.1877 N   0  0  0  0  0  0  0  0  0  0  0  0
   11.5110   -3.8617   21.9932 C   0  0  0  0  0  0  0  0  0  0  0  0
   10.0240   -3.1703   25.4112 C   0  0  0  0  0  0  0  0  0  0  0  0
    1.8229   -9.4922   15.8946 C   0  0  0  0  0  0  0  0  0  0  0  0
    7.9073   -8.2295   16.6369 C   0  0  0  0  0  0  0  0  0  0  0  0
    9.7327   -2.2928   24.4657 C   0  0  0  0  0  0  0  0  0  0  0  0
   10.8791   -3.7084   22.9441 C   0  0  0  0  0  0  0  0  0  0  0  0
    0.7807  -10.1273   16.5938 C   0  0  0  0  0  0  0  0  0  0  0  0
   11.1474   -4.3770   20.2576 C   0  0  0  0  0  0  0  0  0  0  0  0
   -0.4533  -10.3193   14.6167 C   0  0  0  0  0  0  0  0  0  0  0  0
   11.1975   -4.5782   23.9847 C   0  0  0  0  0  0  0  0  0  0  0  0
    4.2963   -8.6760   16.5868 C   0  0  0  0  0  0  0  0  0  0  0  0
   10.5015   -3.6967   16.2991 C   0  0  0  0  0  0  0  0  0  0  0  0
   -0.3098  -10.5144   15.9276 C   0  0  0  0  0  0  0  0  0  0  0  0
    3.8422   -8.6952   15.6559 C   0  0  0  0  0  0  0  0  0  0  0  0
   10.7173   -3.7527   17.4248 C   0  0  0  0  0  0  0  0  0  0  0  0
   11.1066   -3.0979   17.9629 N   0  0  0  0  0  0  0  0  0  0  0  0
   10.6593   -4.7698   19.0817 C   0  0  0  0  0  0  0  0  0  0  0  0
    9.1503   -6.5069   17.6708 C   0  0  0  0  0  0  0  0  0  0  0  0
    9.2239   -5.3178   16.1468 N   0  0  0  0  0  0  0  0  0  0  0  0
    1.5334   -9.2398   14.4160 C   0  0  0  0  0  0  0  0  0  0  0  0
    7.4991   -6.2968   15.9335 C   0  0  0  0  0  0  0  0  0  0  0  0
    6.9779   -6.0509   15.5411 O   0  0  0  0  0  0  0  0  0  0  0  0
   10.6213   -4.4288   20.9701 N   0  0  0  0  0  0  0  0  0  0  0  0
   10.3128   -6.0249   18.8107 C   0  0  0  0  0  0  0  0  0  0  0  0
    5.2831   -8.5805   16.9931 C   0  0  0  0  0  0  0  0  0  0  0  0
   10.1066   -2.4264   23.1990 C   0  0  0  0  0  0  0  0  0  0  0  0
    9.7216   -5.0031   16.7446 C   0  0  0  0  0  0  0  0  0  0  0  0
    7.0437   -8.5608   16.3644 C   0  0  0  0  0  0  0  0  0  0  0  0
    5.2404   -7.0621   15.7586 C   0  0  0  0  0  0  0  0  0  0  0  0
    0.4160   -9.6695   13.8970 C   0  0  0  0  0  0  0  0  0  0  0  0
  1 29  1  0
  1 32  1  0
  2 22  4  0
  3  7  1  0
  3 15  1  0
  4  6  4  0
  4 14  4  0
  5 10  1  0
  6  9  4  0
  7 11  4  0
  7 24  4  0
  8 32  1  0
  9 30  4  0
 10 14  4  0
 10 30  4  0
 11 17  4  0
 12 21  1  0
 12 27  1  0
 13 17  4  0
 13 34  4  0
 15 18  1  0
 15 29  1  0
 16 20  4  0
 19 20  4  0
 19 31  4  0
 21 28  4  0
 22 28  4  0
 23 31  4  0
 24 34  4  0
 25 26  4  0
M  END
$$$$

 Created by Python create_sdf_string function

 34 97  0  0  0  0  0  0  0  0999 V2000
    6.8160   -9.3227   15.7044 C   0  0  0  0  0  0  0  0  0  0  0  0
    9.0663   -6.0233   17.5197 C   0  0  0  0  0  0  0  0  0  0  0  0
    2.8377   -9.7617   17.3702 C   0  0  0  0  0  0  0  0  0  0  0  0
   10.1261   -3.2331   25.4391 C   0  0  0  0  0  0  0  0  0  0  0  0
    2.0656   -9.7325   16.0365 C   0  0  0  0  0  0  0  0  0  0  0  0
    8.1686   -7.9345   16.4579 C   0  0  0  0  0  0  0  0  0  0  0  0
   10.6103   -3.2358   22.9786 C   0  0  0  0  0  0  0  0  0  0  0  0
    0.9203  -10.6969   16.7597 C   0  0  0  0  0  0  0  0  0  0  0  0
   11.1830   -4.4350   20.2499 C   0  0  0  0  0  0  0  0  0  0  0  0
   -0.9953   -9.9551   14.4629 F   0  0  0  0  0  0  0  0  0  0  0  0
   11.5004   -4.4649   24.7156 C   0  0  0  0  0  0  0  0  0  0  0  0
    4.9354   -9.1253   17.0656 C   0  0  0  0  0  0  0  0  0  0  0  0
   11.5684   -2.0776   17.7057 Se  0  0  0  0  0  0  0  0  0  0  0  0
    4.5380   -8.2991   14.6160 S   0  0  0  0  0  0  0  0  0  0  0  0
   10.7338   -3.8456   17.1446 C   0  0  0  0  0  0  0  0  0  0  0  0
   11.5453   -3.2701   17.9344 N   0  0  0  0  0  0  0  0  0  0  0  0
   10.7709   -4.4570   18.7520 C   0  0  0  0  0  0  0  0  0  0  0  0
    9.7450   -7.4829   17.3845 N   0  0  0  0  0  0  0  0  0  0  0  0
    8.8701   -5.9545   16.4869 P   0  0  0  0  0  0  0  0  0  0  0  0
    1.1182   -9.5091   14.5435 C   0  0  0  0  0  0  0  0  0  0  0  0
    6.7049   -7.7797   15.4232 P   0  0  0  0  0  0  0  0  0  0  0  0
    6.9033   -6.1093   15.6344 C   0  0  0  0  0  0  0  0  0  0  0  0
   10.7436   -5.9440   18.8195 C   0  0  0  0  0  0  0  0  0  0  0  0
   10.4547   -2.8942   22.7690 C   0  0  0  0  0  0  0  0  0  0  0  0
    9.6519   -5.1079   16.6979 C   0  0  0  0  0  0  0  0  0  0  0  0
    6.8763   -8.0791   16.7027 C   0  0  0  0  0  0  0  0  0  0  0  0
    4.8290   -7.2847   16.6458 S   0  0  0  0  0  0  0  0  0  0  0  0
    0.5282   -9.7310   13.8589 C   0  0  0  0  0  0  0  0  0  0  0  0
   10.9151   -4.3851   25.5086 He  0  0  0  0  0  0  0  0  0  0  0  0
   12.1190   -2.6733   21.9917 He  0  0  0  0  0  0  0  0  0  0  0  0
   10.1507   -2.5510   23.8899 He  0  0  0  0  0  0  0  0  0  0  0  0
    0.0405  -10.6615   15.5404 He  0  0  0  0  0  0  0  0  0  0  0  0
   11.4518   -4.9205   21.3059 He  0  0  0  0  0  0  0  0  0  0  0  0
    5.7028   -9.7122   17.7126 He  0  0  0  0  0  0  0  0  0  0  0  0
  1  8  4  0
  1 10  4  0
  1 19  2  0
  1 25  2  0
  1 26  1  0
  2  3  3  0
  2  5  3  0
  2  7  1  0
  2  8  2  0
  2  9  1  0
  2 10  3  0
  2 13  2  0
  2 14  3  0
  2 15  1  0
  2 16  1  0
  2 21  1  0
  2 27  3  0
  3  4  3  0
  3  5  1  0
  3  8  4  0
  3 11  4  0
  3 13  3  0
  3 20  4  0
  3 21  2  0
  3 26  4  0
  4  8  2  0
  4  9  3  0
  4 21  3  0
  5  7  2  0
  5  8  4  0
  5 20  4  0
  6 12  1  0
  6 14  1  0
  6 18  1  0
  6 19  4  0
  6 26  1  0
  6 27  2  0
  7 11  4  0
  7 13  3  0
  8 10  1  0
  9 10  1  0
  9 17  1  0
 10 12  4  0
 10 13  3  0
 10 15  3  0
 10 17  1  0
 10 18  1  0
 10 19  1  0
 10 23  1  0
 10 24  1  0
 10 28  4  0
 11 12  3  0
 11 14  3  0
 11 18  1  0
 11 26  1  0
 12 17  4  0
 12 19  3  0
 12 20  3  0
 12 22  2  0
 12 27  2  0
 13 15  3  0
 13 17  3  0
 13 23  3  0
 14 16  2  0
 14 19  3  0
 14 20  3  0
 14 21  4  0
 15 16  4  0
 15 19  3  0
 15 25  4  0
 15 28  3  0
 16 21  1  0
 16 22  4  0
 16 25  2  0
 16 27  1  0
 17 18  1  0
 17 21  1  0
 17 23  4  0
 17 24  4  0
 17 26  3  0
 18 22  3  0
 18 23  4  0
 18 24  1  0
 18 26  4  0
 19 25  4  0
 19 27  2  0
 19 28  2  0
 20 28  4  0
 21 25  2  0
 22 28  3  0
 23 27  2  0
 23 28  1  0
 24 27  2  0
 25 26  3  0
 25 27  4  0
 26 27  1  0
 26 28  1  0
M  END
$$$$

 Created by Python create_sdf_string function

 34 34  0  0  0  0  0  0  0  0999 V2000
    6.6631   -8.9086   16.1580 C   0  0  0  0  0  0  0  0  0  0  0  0
    9.0907   -6.3240   17.1827 C   0  0  0  0  0  0  0  0  0  0  0  0
    3.0259   -9.3180   16.6887 C   0  0  0  0  0  0  0  0  0  0  0  0
   10.7664   -4.1472   25.3417 C   0  0  0  0  0  0  0  0  0  0  0  0
   12.1009   -3.4665   21.9703 C   0  0  0  0  0  0  0  0  0  0  0  0
    9.9765   -3.1112   25.4626 C   0  0  0  0  0  0  0  0  0  0  0  0
    1.8238   -9.6595   15.9582 C   0  0  0  0  0  0  0  0  0  0  0  0
    8.2863   -8.1029   16.8323 C   0  0  0  0  0  0  0  0  0  0  0  0
    9.7392   -2.2794   24.3989 C   0  0  0  0  0  0  0  0  0  0  0  0
   11.1786   -3.5231   23.1689 C   0  0  0  0  0  0  0  0  0  0  0  0
    0.8467  -10.3821   16.6039 C   0  0  0  0  0  0  0  0  0  0  0  0
   11.1807   -4.4581   20.1082 C   0  0  0  0  0  0  0  0  0  0  0  0
   -0.4212  -10.4314   14.6333 C   0  0  0  0  0  0  0  0  0  0  0  0
   11.3720   -4.5027   24.2065 C   0  0  0  0  0  0  0  0  0  0  0  0
    4.4380   -9.0258   16.7190 C   0  0  0  0  0  0  0  0  0  0  0  0
   11.3483   -2.5787   18.2037 C   0  0  0  0  0  0  0  0  0  0  0  0
   -0.2288  -10.7381   15.9146 C   0  0  0  0  0  0  0  0  0  0  0  0
    4.2976   -8.6102   15.4865 C   0  0  0  0  0  0  0  0  0  0  0  0
   10.4530   -3.8675   16.9809 C   0  0  0  0  0  0  0  0  0  0  0  0
   11.1385   -3.2661   17.8632 N   0  0  0  0  0  0  0  0  0  0  0  0
   10.9006   -4.6449   18.9690 C   0  0  0  0  0  0  0  0  0  0  0  0
    9.2330   -7.3071   17.9065 N   0  0  0  0  0  0  0  0  0  0  0  0
    8.8133   -5.7550   16.4642 N   0  0  0  0  0  0  0  0  0  0  0  0
    1.5946   -9.2908   14.5748 C   0  0  0  0  0  0  0  0  0  0  0  0
    6.4080   -7.0688   15.4674 C   0  0  0  0  0  0  0  0  0  0  0  0
    7.3502   -6.1534   15.6524 C   0  0  0  0  0  0  0  0  0  0  0  0
   11.4324   -4.5639   21.2018 C   0  0  0  0  0  0  0  0  0  0  0  0
   10.4059   -5.8132   18.7982 C   0  0  0  0  0  0  0  0  0  0  0  0
    5.2781   -9.4848   17.5462 O   0  0  0  0  0  0  0  0  0  0  0  0
   10.3245   -2.5035   23.2081 C   0  0  0  0  0  0  0  0  0  0  0  0
    9.5802   -4.8143   16.6963 C   0  0  0  0  0  0  0  0  0  0  0  0
    6.9950   -8.3988   16.8005 C   0  0  0  0  0  0  0  0  0  0  0  0
    5.1669   -7.7676   16.3882 C   0  0  0  0  0  0  0  0  0  0  0  0
    0.4704   -9.6886   13.9524 C   0  0  0  0  0  0  0  0  0  0  0  0
  1 32  1  0
  2 22  4  0
  2 23  4  0
  3  7  1  0
  3 15  1  0
  4  6  4  0
  4 14  4  0
  5 10  1  0
  5 27  1  0
  6  9  4  0
  7 11  4  0
  7 24  4  0
  8 22  1  0
  8 32  1  0
  9 30  4  0
 10 14  4  0
 10 30  4  0
 11 17  4  0
 12 21  1  0
 12 27  1  0
 13 17  4  0
 13 34  4  0
 15 18  1  0
 15 29  1  0
 16 20  4  0
 19 20  4  0
 19 31  4  0
 21 28  4  0
 22 28  4  0
 23 26  1  0
 23 31  4  0
 24 34  4  0
 25 26  1  0
 25 33  1  0
M  END
$$$$

 Created by Python create_sdf_string function

 34101  0  0  0  0  0  0  0  0999 V2000
    7.0420   -8.7114   15.6102 C   0  0  0  0  0  0  0  0  0  0  0  0
    8.7391   -7.9494   17.5432 C   0  0  0  0  0  0  0  0  0  0  0  0
    2.9442  -10.2160   16.5065 C   0  0  0  0  0  0  0  0  0  0  0  0
   10.5172   -4.0318   25.8980 C   0  0  0  0  0  0  0  0  0  0  0  0
   11.9597   -3.9689   21.4618 P   0  0  0  0  0  0  0  0  0  0  0  0
    9.6243   -2.8187   25.9154 C   0  0  0  0  0  0  0  0  0  0  0  0
    1.5714   -9.8910   16.1564 C   0  0  0  0  0  0  0  0  0  0  0  0
    7.9258   -7.8921   16.8228 C   0  0  0  0  0  0  0  0  0  0  0  0
    9.8988   -2.1029   24.4766 S   0  0  0  0  0  0  0  0  0  0  0  0
   11.3783   -3.4762   22.9532 C   0  0  0  0  0  0  0  0  0  0  0  0
    1.2435  -10.5957   16.2083 C   0  0  0  0  0  0  0  0  0  0  0  0
   11.5010   -4.6838   20.0096 C   0  0  0  0  0  0  0  0  0  0  0  0
    1.1140  -10.7368   13.9545 C   0  0  0  0  0  0  0  0  0  0  0  0
   11.5282   -4.6534   24.4469 C   0  0  0  0  0  0  0  0  0  0  0  0
    4.0831   -8.9032   15.9323 C   0  0  0  0  0  0  0  0  0  0  0  0
   -0.5351  -10.8629   15.4396 C   0  0  0  0  0  0  0  0  0  0  0  0
    4.4946   -9.5623   15.2350 C   0  0  0  0  0  0  0  0  0  0  0  0
   10.0582   -3.8718   17.8765 C   0  0  0  0  0  0  0  0  0  0  0  0
   10.6918   -2.9267   17.9394 N   0  0  0  0  0  0  0  0  0  0  0  0
   11.0602   -5.0449   19.0799 C   0  0  0  0  0  0  0  0  0  0  0  0
    8.8391   -7.7326   17.6175 C   0  0  0  0  0  0  0  0  0  0  0  0
    7.0811   -6.8895   14.9986 C   0  0  0  0  0  0  0  0  0  0  0  0
    7.3364   -6.4345   15.7642 C   0  0  0  0  0  0  0  0  0  0  0  0
   10.8770   -4.4122   21.1713 C   0  0  0  0  0  0  0  0  0  0  0  0
   10.8254   -6.0741   18.7411 C   0  0  0  0  0  0  0  0  0  0  0  0
    9.7867   -2.6682   23.0015 N   0  0  0  0  0  0  0  0  0  0  0  0
    9.6792   -4.4196   16.5443 C   0  0  0  0  0  0  0  0  0  0  0  0
    7.5424   -7.2082   15.8585 Cl  0  0  0  0  0  0  0  0  0  0  0  0
    0.7746   -9.2332   14.0590 C   0  0  0  0  0  0  0  0  0  0  0  0
   11.8470   -2.7704   18.2344 He  0  0  0  0  0  0  0  0  0  0  0  0
    8.3488   -5.5160   15.8574 He  0  0  0  0  0  0  0  0  0  0  0  0
    1.5245   -9.2253   14.6791 He  0  0  0  0  0  0  0  0  0  0  0  0
    3.9727  -10.4174   17.4032 He  0  0  0  0  0  0  0  0  0  0  0  0
    5.7728   -6.9836   17.1674 He  0  0  0  0  0  0  0  0  0  0  0  0
  1  4  3  0
  1  6  1  0
  1 12  2  0
  1 14  4  0
  1 15  2  0
  1 16  3  0
  1 18  4  0
  1 29  3  0
  2  3  3  0
  2  6  4  0
  2  7  4  0
  2  9  3  0
  2 15  2  0
  2 16  2  0
  2 17  3  0
  2 18  2  0
  2 19  2  0
  2 21  3  0
  2 24  1  0
  2 26  3  0
  2 29  4  0
  3  9  1  0
  3 13  1  0
  3 15  1  0
  3 16  2  0
  3 25  1  0
  4  6  4  0
  4 14  2  0
  4 21  3  0
  4 22  1  0
  4 24  1  0
  5  7  4  0
  5  8  4  0
  5  9  4  0
  5 15  3  0
  5 21  3  0
  5 29  2  0
  6  9  4  0
  6 10  1  0
  6 12  3  0
  6 17  1  0
  6 21  3  0
  6 25  3  0
  7 11  4  0
  7 14  1  0
  7 20  2  0
  7 21  4  0
  7 27  2  0
  7 28  3  0
  8 15  2  0
  8 21  1  0
  8 26  4  0
  9 17  3  0
  9 22  1  0
  9 26  4  0
  9 28  2  0
 10 14  4  0
 10 22  2  0
 10 25  3  0
 10 26  4  0
 11 16  4  0
 12 13  4  0
 12 17  1  0
 12 20  1  0
 12 24  1  0
 12 28  4  0
 13 16  2  0
 13 18  2  0
 13 23  1  0
 13 25  1  0
 14 15  3  0
 14 22  2  0
 15 16  1  0
 15 18  2  0
 15 24  4  0
 15 25  1  0
 16 17  1  0
 16 26  4  0
 16 27  4  0
 16 29  2  0
 17 19  4  0
 17 21  1  0
 17 22  1  0
 17 24  1  0
 17 26  4  0
 17 27  2  0
 18 19  4  0
 18 21  3  0
 18 27  4  0
 19 21  4  0
 19 23  3  0
 20 22  3  0
 20 25  4  0
 21 22  3  0
 21 25  4  0
 22 23  1  0
 23 25  2  0
 23 26  3  0
 24 25  1  0
 25 28  4  0
 27 28  4  0
M  END
$$$$

 Created by Python create_sdf_string function

 34 34  0  0  0  0  0  0  0  0999 V2000
    6.7446   -8.8256   15.8610 C   0  0  0  0  0  0  0  0  0  0  0  0
    8.9555   -7.5027   17.7294 C   0  0  0  0  0  0  0  0  0  0  0  0
    3.0826   -9.4887   16.7445 C   0  0  0  0  0  0  0  0  0  0  0  0
   10.6519   -3.9661   25.6137 C   0  0  0  0  0  0  0  0  0  0  0  0
   11.8651   -4.0059   22.0952 C   0  0  0  0  0  0  0  0  0  0  0  0
    9.8019   -2.8665   25.6467 C   0  0  0  0  0  0  0  0  0  0  0  0
    1.8005   -9.6963   15.9937 C   0  0  0  0  0  0  0  0  0  0  0  0
    8.0298   -8.2317   16.9749 C   0  0  0  0  0  0  0  0  0  0  0  0
    9.5756   -2.1703   24.4762 C   0  0  0  0  0  0  0  0  0  0  0  0
   10.9635   -3.6271   23.3603 C   0  0  0  0  0  0  0  0  0  0  0  0
    0.7588  -10.5175   16.3895 C   0  0  0  0  0  0  0  0  0  0  0  0
   11.2722   -4.6717   20.1508 C   0  0  0  0  0  0  0  0  0  0  0  0
   -0.1822  -10.4741   14.2718 C   0  0  0  0  0  0  0  0  0  0  0  0
   11.2307   -4.3929   24.4691 C   0  0  0  0  0  0  0  0  0  0  0  0
    4.1181   -9.0632   16.2394 N   0  0  0  0  0  0  0  0  0  0  0  0
   11.2989   -3.2769   18.8822 N   0  0  0  0  0  0  0  0  0  0  0  0
   -0.1986  -10.8838   15.4921 C   0  0  0  0  0  0  0  0  0  0  0  0
    4.9573   -8.7649   15.7459 C   0  0  0  0  0  0  0  0  0  0  0  0
   10.1691   -3.9922   17.3979 C   0  0  0  0  0  0  0  0  0  0  0  0
   10.8705   -3.1093   17.9214 N   0  0  0  0  0  0  0  0  0  0  0  0
   10.7345   -5.0168   19.0701 C   0  0  0  0  0  0  0  0  0  0  0  0
    9.0178   -7.1954   17.7321 C   0  0  0  0  0  0  0  0  0  0  0  0
    8.2577   -5.5345   15.9872 C   0  0  0  0  0  0  0  0  0  0  0  0
    1.7070   -9.1763   14.6985 C   0  0  0  0  0  0  0  0  0  0  0  0
    6.3916   -7.4346   15.6855 C   0  0  0  0  0  0  0  0  0  0  0  0
    7.4588   -6.4692   15.7546 C   0  0  0  0  0  0  0  0  0  0  0  0
   11.3208   -4.4621   21.1937 C   0  0  0  0  0  0  0  0  0  0  0  0
   10.3081   -5.8399   18.5779 C   0  0  0  0  0  0  0  0  0  0  0  0
    3.6419   -9.7844   17.8422 O   0  0  0  0  0  0  0  0  0  0  0  0
   10.1390   -2.5333   23.2927 C   0  0  0  0  0  0  0  0  0  0  0  0
    9.5584   -4.6941   16.8502 C   0  0  0  0  0  0  0  0  0  0  0  0
    7.7095   -6.4409   16.0438 O   0  0  0  0  0  0  0  0  0  0  0  0
    5.8967   -7.2968   16.9857 C   0  0  0  0  0  0  0  0  0  0  0  0
    0.6805   -9.5892   13.8940 C   0  0  0  0  0  0  0  0  0  0  0  0
  1  8  1  0
  1 18  1  0
  1 25  1  0
  2 22  1  0
  3  7  1  0
  3 15  1  0
  3 29  2  0
  4  6  4  0
  4 14  4  0
  5 10  1  0
  5 27  1  0
  6  9  4  0
  7 11  4  0
  7 24  4  0
  8 22  1  0
  9 30  4  0
 10 14  4  0
 10 30  4  0
 11 17  4  0
 12 21  1  0
 12 27  1  0
 13 17  4  0
 13 34  4  0
 15 18  1  0
 16 20  4  0
 19 20  4  0
 19 31  4  0
 21 28  4  0
 22 28  4  0
 23 26  1  0
 24 34  4  0
 25 26  1  0
 25 33  1  0
 26 32  1  0
M  END
$$$$

 Created by Python create_sdf_string function

 34 62  0  0  0  0  0  0  0  0999 V2000
    9.2558   -8.1502   18.7410 C   0  0  0  0  0  0  0  0  0  0  0  0
    9.7935   -2.5427   25.9595 C   0  0  0  0  0  0  0  0  0  0  0  0
    1.6939   -9.7922   16.2351 C   0  0  0  0  0  0  0  0  0  0  0  0
    7.9476   -8.1358   16.8424 C   0  0  0  0  0  0  0  0  0  0  0  0
    9.4626   -2.0929   23.9545 N   0  0  0  0  0  0  0  0  0  0  0  0
   11.4514   -3.7058   23.6239 C   0  0  0  0  0  0  0  0  0  0  0  0
    0.6430  -10.7176   16.1639 C   0  0  0  0  0  0  0  0  0  0  0  0
   11.4384   -4.9981   19.8947 C   0  0  0  0  0  0  0  0  0  0  0  0
   11.1449   -4.7131   24.9099 C   0  0  0  0  0  0  0  0  0  0  0  0
    3.1170   -9.2108   16.4549 N   0  0  0  0  0  0  0  0  0  0  0  0
   11.2338   -3.1153   18.3260 N   0  0  0  0  0  0  0  0  0  0  0  0
   -0.7330  -11.1247   15.6736 C   0  0  0  0  0  0  0  0  0  0  0  0
    3.7787   -8.9058   16.2513 C   0  0  0  0  0  0  0  0  0  0  0  0
    9.7716   -4.1962   17.3626 C   0  0  0  0  0  0  0  0  0  0  0  0
   10.6914   -3.1319   17.9290 N   0  0  0  0  0  0  0  0  0  0  0  0
   10.6002   -4.9752   19.0675 C   0  0  0  0  0  0  0  0  0  0  0  0
    8.5150   -4.5671   16.2284 C   0  0  0  0  0  0  0  0  0  0  0  0
    1.8534   -8.9380   14.7802 C   0  0  0  0  0  0  0  0  0  0  0  0
    7.2717   -6.4140   15.8100 C   0  0  0  0  0  0  0  0  0  0  0  0
   10.3453   -5.7003   19.1065 C   0  0  0  0  0  0  0  0  0  0  0  0
   10.1963   -2.6478   23.4641 C   0  0  0  0  0  0  0  0  0  0  0  0
    9.6290   -4.6229   16.6871 C   0  0  0  0  0  0  0  0  0  0  0  0
    0.8164   -9.7657   13.9376 C   0  0  0  0  0  0  0  0  0  0  0  0
    5.7788   -8.9238   16.1150 He  0  0  0  0  0  0  0  0  0  0  0  0
    2.5709  -10.7884   16.7473 He  0  0  0  0  0  0  0  0  0  0  0  0
   10.8533   -4.2898   25.7383 He  0  0  0  0  0  0  0  0  0  0  0  0
   11.0993   -4.8156   21.1943 He  0  0  0  0  0  0  0  0  0  0  0  0
    0.7077   -9.7948   15.1473 He  0  0  0  0  0  0  0  0  0  0  0  0
    9.4682   -8.2643   18.3377 He  0  0  0  0  0  0  0  0  0  0  0  0
    7.5234   -7.6082   14.5316 He  0  0  0  0  0  0  0  0  0  0  0  0
   11.0902   -4.5531   20.7754 He  0  0  0  0  0  0  0  0  0  0  0  0
    3.4847   -9.2114   17.6667 He  0  0  0  0  0  0  0  0  0  0  0  0
    5.8553   -5.5267   16.0139 He  0  0  0  0  0  0  0  0  0  0  0  0
    5.9321   -6.2645   16.9191 He  0  0  0  0  0  0  0  0  0  0  0  0
  1  4  3  0
  1  5  1  0
  1  6  4  0
  1  8  2  0
  1 12  4  0
  1 14  3  0
  1 22  3  0
  2  5  4  0
  3  7  4  0
  3 17  3  0
  3 18  4  0
  3 19  1  0
  3 23  4  0
  4 12  3  0
  4 17  1  0
  5  8  1  0
  5 10  2  0
  5 11  3  0
  5 13  1  0
  5 15  3  0
  5 21  4  0
  6  9  4  0
  6 10  3  0
  6 20  2  0
  7  8  3  0
  7 10  2  0
  7 11  1  0
  7 13  4  0
  7 17  4  0
  8 11  3  0
  8 12  3  0
  8 13  4  0
  8 16  2  0
  8 23  3  0
  9 12  2  0
  9 13  2  0
  9 22  1  0
 10 14  4  0
 10 15  1  0
 10 16  4  0
 10 17  4  0
 10 18  2  0
 11 12  4  0
 11 13  1  0
 11 15  4  0
 11 18  2  0
 12 17  4  0
 12 23  4  0
 13 14  1  0
 13 17  2  0
 13 19  4  0
 13 20  2  0
 14 15  4  0
 14 18  4  0
 14 22  4  0
 15 17  2  0
 17 19  1  0
 17 21  1  0
 17 22  4  0
 17 23  3  0
 18 23  4  0
 19 20  4  0
M  END
$$$$

 Created by Python create_sdf_string function

 34 31  0  0  0  0  0  0  0  0999 V2000
    5.8178   -8.6838   16.2005 C   0  0  0  0  0  0  0  0  0  0  0  0
    9.0977   -7.3414   17.9602 C   0  0  0  0  0  0  0  0  0  0  0  0
    2.5845   -9.7308   17.2533 C   0  0  0  0  0  0  0  0  0  0  0  0
   10.6726   -4.0011   25.5818 C   0  0  0  0  0  0  0  0  0  0  0  0
   11.4034   -4.4775   21.9919 C   0  0  0  0  0  0  0  0  0  0  0  0
    9.8788   -2.8606   25.5894 C   0  0  0  0  0  0  0  0  0  0  0  0
    1.6100   -9.8671   16.2812 C   0  0  0  0  0  0  0  0  0  0  0  0
    8.1414   -8.2519   17.0873 C   0  0  0  0  0  0  0  0  0  0  0  0
    9.6493   -2.1559   24.4087 N   0  0  0  0  0  0  0  0  0  0  0  0
   10.9136   -3.8585   23.2952 C   0  0  0  0  0  0  0  0  0  0  0  0
    0.5212  -10.6757   16.5550 C   0  0  0  0  0  0  0  0  0  0  0  0
   11.0597   -4.5306   20.2957 C   0  0  0  0  0  0  0  0  0  0  0  0
   -0.2019  -10.3520   14.4342 C   0  0  0  0  0  0  0  0  0  0  0  0
   11.1775   -4.4988   24.4594 C   0  0  0  0  0  0  0  0  0  0  0  0
    3.6398   -8.7090   16.3269 N   0  0  0  0  0  0  0  0  0  0  0  0
   11.0615   -3.2738   19.0051 N   0  0  0  0  0  0  0  0  0  0  0  0
   -0.4195  -10.9562   15.5742 C   0  0  0  0  0  0  0  0  0  0  0  0
    4.2613   -8.6317   16.4236 C   0  0  0  0  0  0  0  0  0  0  0  0
   10.0660   -4.2439   17.4125 C   0  0  0  0  0  0  0  0  0  0  0  0
   10.8172   -3.3334   18.0742 N   0  0  0  0  0  0  0  0  0  0  0  0
   10.6134   -5.3182   19.3913 C   0  0  0  0  0  0  0  0  0  0  0  0
    9.1944   -7.1906   18.0418 C   0  0  0  0  0  0  0  0  0  0  0  0
    8.6049   -5.7185   16.4105 C   0  0  0  0  0  0  0  0  0  0  0  0
    1.7095   -9.3108   15.0239 C   0  0  0  0  0  0  0  0  0  0  0  0
    7.2817   -7.6811   15.4663 C   0  0  0  0  0  0  0  0  0  0  0  0
    7.6481   -6.4893   16.0934 C   0  0  0  0  0  0  0  0  0  0  0  0
   10.8914   -4.2690   20.5344 C   0  0  0  0  0  0  0  0  0  0  0  0
   10.1166   -5.5829   18.5209 C   0  0  0  0  0  0  0  0  0  0  0  0
    3.9228   -9.4781   17.5241 N   0  0  0  0  0  0  0  0  0  0  0  0
   10.1733   -2.6672   23.2674 C   0  0  0  0  0  0  0  0  0  0  0  0
    9.2846   -4.6369   16.5044 C   0  0  0  0  0  0  0  0  0  0  0  0
    6.3123   -6.5967   15.6936 C   0  0  0  0  0  0  0  0  0  0  0  0
    6.0702   -6.8559   16.6869 C   0  0  0  0  0  0  0  0  0  0  0  0
    0.6812   -9.5751   14.1079 C   0  0  0  0  0  0  0  0  0  0  0  0
  1 18  1  0
  2 22  4  0
  3  7  1  0
  3 29  4  0
  4  6  4  0
  4 14  4  0
  5 10  1  0
  5 12  1  0
  6  9  4  0
  7 11  4  0
  7 24  4  0
  8 22  1  0
  9 30  4  0
 10 14  4  0
 10 30  4  0
 11 17  4  0
 12 21  4  0
 12 27  4  0
 13 17  4  0
 13 34  4  0
 15 18  1  0
 16 20  4  0
 19 20  4  0
 19 31  4  0
 21 27  4  0
 21 28  4  0
 23 26  1  0
 23 31  4  0
 24 34  4  0
 25 26  1  0
 32 33  4  0
M  END
$$$$

 Created by Python create_sdf_string function

 34 65  0  0  0  0  0  0  0  0999 V2000
    2.9420  -10.2122   16.8312 C   0  0  0  0  0  0  0  0  0  0  0  0
   11.0255   -4.0029   22.1157 O   0  0  0  0  0  0  0  0  0  0  0  0
    1.4260  -10.3016   16.1183 C   0  0  0  0  0  0  0  0  0  0  0  0
    7.9662   -8.2883   16.7306 C   0  0  0  0  0  0  0  0  0  0  0  0
    9.6016   -1.8749   24.1556 C   0  0  0  0  0  0  0  0  0  0  0  0
    0.6241  -10.6861   16.7012 C   0  0  0  0  0  0  0  0  0  0  0  0
   11.5849   -4.5823   20.8316 C   0  0  0  0  0  0  0  0  0  0  0  0
   -0.6736  -11.2517   14.1935 C   0  0  0  0  0  0  0  0  0  0  0  0
   11.1335   -4.5950   24.3242 C   0  0  0  0  0  0  0  0  0  0  0  0
   -0.3593  -10.9194   15.5725 C   0  0  0  0  0  0  0  0  0  0  0  0
    4.3523   -9.3717   16.5707 C   0  0  0  0  0  0  0  0  0  0  0  0
    9.9943   -3.9820   17.5717 C   0  0  0  0  0  0  0  0  0  0  0  0
   11.0290   -3.2400   17.6974 N   0  0  0  0  0  0  0  0  0  0  0  0
   10.6009   -5.3852   19.2371 C   0  0  0  0  0  0  0  0  0  0  0  0
    8.5410   -7.5725   18.0406 P   0  0  0  0  0  0  0  0  0  0  0  0
    8.6670   -5.7432   16.2622 N   0  0  0  0  0  0  0  0  0  0  0  0
    1.4456   -9.0150   15.0182 C   0  0  0  0  0  0  0  0  0  0  0  0
    7.8739   -6.4957   16.2440 C   0  0  0  0  0  0  0  0  0  0  0  0
   10.9858   -4.5541   20.1773 B   0  0  0  0  0  0  0  0  0  0  0  0
   10.0623   -5.4778   18.7046 C   0  0  0  0  0  0  0  0  0  0  0  0
    3.9081   -8.6318   16.8394 N   0  0  0  0  0  0  0  0  0  0  0  0
   10.2774   -2.5294   23.8761 F   0  0  0  0  0  0  0  0  0  0  0  0
    0.6009   -9.4610   14.4190 C   0  0  0  0  0  0  0  0  0  0  0  0
    6.1708   -8.1191   16.8851 He  0  0  0  0  0  0  0  0  0  0  0  0
    9.2436   -8.6176   19.0568 He  0  0  0  0  0  0  0  0  0  0  0  0
   10.3222   -4.1425   25.6614 He  0  0  0  0  0  0  0  0  0  0  0  0
    9.7257   -3.0813   25.3192 He  0  0  0  0  0  0  0  0  0  0  0  0
   10.6944   -3.4547   23.2428 He  0  0  0  0  0  0  0  0  0  0  0  0
    3.5834   -9.5762   15.7877 He  0  0  0  0  0  0  0  0  0  0  0  0
   11.4719   -4.1863   18.8827 He  0  0  0  0  0  0  0  0  0  0  0  0
    6.7088   -6.3111   14.4232 He  0  0  0  0  0  0  0  0  0  0  0  0
    8.9619   -4.7158   16.8047 He  0  0  0  0  0  0  0  0  0  0  0  0
    6.0168   -6.5416   14.1240 He  0  0  0  0  0  0  0  0  0  0  0  0
    4.4770   -7.1866   16.6628 He  0  0  0  0  0  0  0  0  0  0  0  0
  1  2  1  0
  1  6  3  0
  1 15  4  0
  1 17  1  0
  1 22  3  0
  1 23  4  0
  2  3  2  0
  2  4  1  0
  2  5  3  0
  2  7  1  0
  2 13  1  0
  2 15  2  0
  2 18  1  0
  2 21  2  0
  3  5  4  0
  3  8  4  0
  3 11  4  0
  3 16  3  0
  3 17  2  0
  3 21  2  0
  3 23  1  0
  4  7  2  0
  4 11  4  0
  4 15  2  0
  5  8  2  0
  5 13  1  0
  5 15  3  0
  5 22  4  0
  6 16  3  0
  6 17  4  0
  6 20  4  0
  7 11  3  0
  8 10  4  0
  8 14  3  0
  8 19  4  0
  8 23  4  0
  9 13  3  0
  9 14  1  0
  9 18  2  0
  9 19  3  0
  9 21  4  0
  9 22  3  0
 10 15  4  0
 10 16  1  0
 10 19  3  0
 11 14  3  0
 11 16  1  0
 12 13  4  0
 12 15  3  0
 12 21  2  0
 13 19  1  0
 13 21  4  0
 14 15  4  0
 14 16  4  0
 14 19  4  0
 14 20  4  0
 15 16  4  0
 15 17  1  0
 16 18  1  0
 16 19  1  0
 16 20  4  0
 17 19  1  0
 17 23  4  0
 19 23  2  0
 21 23  3  0
M  END
$$$$

 Created by Python create_sdf_string function

 34 36  0  0  0  0  0  0  0  0999 V2000
    6.3811   -7.9744   16.8738 C   0  0  0  0  0  0  0  0  0  0  0  0
    9.4937   -7.7155   18.5386 S   0  0  0  0  0  0  0  0  0  0  0  0
    2.6311   -9.5503   16.8708 C   0  0  0  0  0  0  0  0  0  0  0  0
   10.3348   -4.0506   25.5715 C   0  0  0  0  0  0  0  0  0  0  0  0
   11.4297   -3.8741   22.0558 O   0  0  0  0  0  0  0  0  0  0  0  0
    9.6499   -2.8973   25.6354 C   0  0  0  0  0  0  0  0  0  0  0  0
    1.4655   -9.8756   16.0517 C   0  0  0  0  0  0  0  0  0  0  0  0
    7.7143   -8.3448   17.0985 C   0  0  0  0  0  0  0  0  0  0  0  0
    9.6113   -2.0335   24.5666 C   0  0  0  0  0  0  0  0  0  0  0  0
   10.8313   -3.5705   23.3349 C   0  0  0  0  0  0  0  0  0  0  0  0
    0.4715  -10.6918   16.5223 C   0  0  0  0  0  0  0  0  0  0  0  0
   11.3141   -4.4385   21.1456 C   0  0  0  0  0  0  0  0  0  0  0  0
   -0.5526  -10.6644   14.4760 C   0  0  0  0  0  0  0  0  0  0  0  0
   10.9567   -4.4240   24.4224 C   0  0  0  0  0  0  0  0  0  0  0  0
    3.7404   -9.2742   16.2589 C   0  0  0  0  0  0  0  0  0  0  0  0
   11.0907   -3.4265   19.1182 C   0  0  0  0  0  0  0  0  0  0  0  0
   -0.5065  -11.1563   15.6919 C   0  0  0  0  0  0  0  0  0  0  0  0
    4.8358   -8.9368   16.8545 C   0  0  0  0  0  0  0  0  0  0  0  0
   10.0732   -4.0535   17.2109 C   0  0  0  0  0  0  0  0  0  0  0  0
   10.8738   -3.4241   17.8886 N   0  0  0  0  0  0  0  0  0  0  0  0
   10.2783   -5.7504   19.1609 C   0  0  0  0  0  0  0  0  0  0  0  0
    8.7568   -7.7101   17.7332 C   0  0  0  0  0  0  0  0  0  0  0  0
    8.7949   -5.9990   16.9268 N   0  0  0  0  0  0  0  0  0  0  0  0
    1.4215   -9.4057   14.8337 C   0  0  0  0  0  0  0  0  0  0  0  0
    6.8741   -6.4150   15.3251 C   0  0  0  0  0  0  0  0  0  0  0  0
    7.7515   -6.5307   16.3634 C   0  0  0  0  0  0  0  0  0  0  0  0
   10.9364   -4.5873   19.8949 C   0  0  0  0  0  0  0  0  0  0  0  0
    9.7774   -5.8641   18.3542 C   0  0  0  0  0  0  0  0  0  0  0  0
    4.0741   -8.4315   16.8202 N   0  0  0  0  0  0  0  0  0  0  0  0
   10.1326   -2.3852   23.3976 C   0  0  0  0  0  0  0  0  0  0  0  0
    9.1990   -4.7005   16.5290 N   0  0  0  0  0  0  0  0  0  0  0  0
    5.9374   -6.6794   14.9940 C   0  0  0  0  0  0  0  0  0  0  0  0
    5.1476   -7.5837   16.1787 C   0  0  0  0  0  0  0  0  0  0  0  0
    0.4012   -9.7805   14.0396 C   0  0  0  0  0  0  0  0  0  0  0  0
  1  8  4  0
  1 26  4  0
  1 33  4  0
  2 22  4  0
  3  7  1  0
  3 15  1  0
  4  6  4  0
  4 14  4  0
  5 10  1  0
  5 12  1  0
  6  9  4  0
  7 11  4  0
  7 24  4  0
  8 22  1  0
  9 30  4  0
 10 14  4  0
 10 30  4  0
 11 17  4  0
 12 27  1  0
 13 17  4  0
 13 34  4  0
 16 20  4  0
 16 27  4  0
 18 29  4  0
 19 20  4  0
 19 31  4  0
 21 27  4  0
 21 28  4  0
 23 26  4  0
 23 28  4  0
 23 31  4  0
 24 34  4  0
 25 26  4  0
 25 32  4  0
 29 33  1  0
 32 33  4  0
M  END
$$$$

 Created by Python create_sdf_string function

 34 69  0  0  0  0  0  0  0  0999 V2000
    6.7263   -8.7723   16.5788 C   0  0  0  0  0  0  0  0  0  0  0  0
   10.6013   -4.5929   25.6070 C   0  0  0  0  0  0  0  0  0  0  0  0
   12.0066   -3.6374   22.3109 C   0  0  0  0  0  0  0  0  0  0  0  0
    9.3656   -3.3855   25.6969 C   0  0  0  0  0  0  0  0  0  0  0  0
    1.5728   -9.8205   15.9372 C   0  0  0  0  0  0  0  0  0  0  0  0
    7.6584   -8.2987   16.8645 C   0  0  0  0  0  0  0  0  0  0  0  0
    9.5040   -1.8625   24.6551 C   0  0  0  0  0  0  0  0  0  0  0  0
   10.9975   -3.4272   23.6373 C   0  0  0  0  0  0  0  0  0  0  0  0
    0.7447  -10.7099   16.4184 C   0  0  0  0  0  0  0  0  0  0  0  0
   10.9819   -4.4520   24.3527 C   0  0  0  0  0  0  0  0  0  0  0  0
   11.5555   -3.9599   20.3050 C   0  0  0  0  0  0  0  0  0  0  0  0
   -0.0772  -11.3244   16.0666 C   0  0  0  0  0  0  0  0  0  0  0  0
    4.1257   -8.5687   16.5086 I   0  0  0  0  0  0  0  0  0  0  0  0
    9.8949   -4.0005   17.1615 C   0  0  0  0  0  0  0  0  0  0  0  0
   10.4439   -3.9887   17.8229 N   0  0  0  0  0  0  0  0  0  0  0  0
    8.0879   -8.4561   17.0665 S   0  0  0  0  0  0  0  0  0  0  0  0
    1.7601   -9.6202   14.7596 C   0  0  0  0  0  0  0  0  0  0  0  0
    7.7681   -6.3318   16.3255 C   0  0  0  0  0  0  0  0  0  0  0  0
   11.9839   -5.6239   20.7336 C   0  0  0  0  0  0  0  0  0  0  0  0
    9.3736   -5.9310   18.5401 C   0  0  0  0  0  0  0  0  0  0  0  0
   10.1329   -2.2373   23.1488 C   0  0  0  0  0  0  0  0  0  0  0  0
    9.1739   -4.6060   16.8554 N   0  0  0  0  0  0  0  0  0  0  0  0
    5.7747   -6.8926   14.9599 C   0  0  0  0  0  0  0  0  0  0  0  0
    0.7136   -9.6158   14.1463 C   0  0  0  0  0  0  0  0  0  0  0  0
    8.9189   -7.8755   17.9378 He  0  0  0  0  0  0  0  0  0  0  0  0
    2.7210   -8.5589   17.0111 He  0  0  0  0  0  0  0  0  0  0  0  0
   11.5010   -4.2174   20.6619 He  0  0  0  0  0  0  0  0  0  0  0  0
   -0.3380  -10.7605   14.7459 He  0  0  0  0  0  0  0  0  0  0  0  0
    4.0935   -9.9919   16.5538 He  0  0  0  0  0  0  0  0  0  0  0  0
   10.0318   -5.7584   19.1834 He  0  0  0  0  0  0  0  0  0  0  0  0
    9.4524   -5.8456   16.7180 He  0  0  0  0  0  0  0  0  0  0  0  0
    6.1957   -6.9153   14.2157 He  0  0  0  0  0  0  0  0  0  0  0  0
    3.0159   -8.9249   15.2190 He  0  0  0  0  0  0  0  0  0  0  0  0
    5.0698   -6.4998   16.0800 He  0  0  0  0  0  0  0  0  0  0  0  0
  1  2  4  0
  1  3  1  0
  1  4  2  0
  1  8  3  0
  1  9  1  0
  1 11  4  0
  1 13  1  0
  1 18  4  0
  1 19  4  0
  1 20  2  0
  1 22  3  0
  2  3  3  0
  2  4  4  0
  2  7  1  0
  2 10  4  0
  2 15  3  0
  2 19  2  0
  2 20  4  0
  3  8  2  0
  3  9  2  0
  3 12  4  0
  3 19  3  0
  3 24  3  0
  4  7  4  0
  4 13  3  0
  4 16  2  0
  4 23  4  0
  4 24  4  0
  5  9  4  0
  5 11  2  0
  5 17  4  0
  5 19  3  0
  6 19  3  0
  6 23  1  0
  7 11  2  0
  7 21  4  0
  8 10  4  0
  8 16  3  0
  8 17  1  0
  8 18  3  0
  8 21  4  0
  9 12  4  0
  9 22  3  0
 10 16  4  0
 10 19  3  0
 10 23  1  0
 11 13  1  0
 11 14  3  0
 11 15  4  0
 11 16  4  0
 11 19  3  0
 11 21  2  0
 11 24  2  0
 12 13  1  0
 12 19  1  0
 12 24  3  0
 13 16  2  0
 14 15  4  0
 14 19  1  0
 14 22  4  0
 15 18  1  0
 15 19  3  0
 16 19  2  0
 16 21  4  0
 16 23  1  0
 16 24  4  0
 17 22  4  0
 17 24  4  0
 19 20  4  0
M  END
$$$$

 Created by Python create_sdf_string function

 34 34  0  0  0  0  0  0  0  0999 V2000
    6.2844   -8.5581   16.5798 C   0  0  0  0  0  0  0  0  0  0  0  0
    9.0948   -7.7120   18.1336 C   0  0  0  0  0  0  0  0  0  0  0  0
    2.8291   -9.1414   16.8868 C   0  0  0  0  0  0  0  0  0  0  0  0
   10.4032   -4.2722   25.5279 C   0  0  0  0  0  0  0  0  0  0  0  0
   11.8950   -3.5503   22.0858 C   0  0  0  0  0  0  0  0  0  0  0  0
    9.5699   -3.1583   25.6394 C   0  0  0  0  0  0  0  0  0  0  0  0
    1.6361   -9.8193   16.0635 C   0  0  0  0  0  0  0  0  0  0  0  0
    7.4025   -8.5511   16.9261 C   0  0  0  0  0  0  0  0  0  0  0  0
    9.4854   -2.1762   24.6438 C   0  0  0  0  0  0  0  0  0  0  0  0
   10.9981   -3.4895   23.3433 C   0  0  0  0  0  0  0  0  0  0  0  0
    0.6916  -10.6956   16.6595 C   0  0  0  0  0  0  0  0  0  0  0  0
   11.3095   -4.0888   20.9242 N   0  0  0  0  0  0  0  0  0  0  0  0
   -0.3629  -10.7578   14.6406 C   0  0  0  0  0  0  0  0  0  0  0  0
   11.1193   -4.4635   24.3337 C   0  0  0  0  0  0  0  0  0  0  0  0
    3.8311   -9.4070   16.9591 C   0  0  0  0  0  0  0  0  0  0  0  0
   11.1947   -3.6068   19.6292 C   0  0  0  0  0  0  0  0  0  0  0  0
   -0.2865  -11.2044   15.9426 C   0  0  0  0  0  0  0  0  0  0  0  0
    4.5343   -8.5417   16.2905 C   0  0  0  0  0  0  0  0  0  0  0  0
   10.2159   -3.7712   17.3524 C   0  0  0  0  0  0  0  0  0  0  0  0
   10.7245   -3.6769   18.4271 N   0  0  0  0  0  0  0  0  0  0  0  0
   10.2936   -5.8644   19.2292 C   0  0  0  0  0  0  0  0  0  0  0  0
    8.0908   -7.8760   17.2039 C   0  0  0  0  0  0  0  0  0  0  0  0
    9.0999   -5.6719   16.9648 C   0  0  0  0  0  0  0  0  0  0  0  0
    1.5879   -9.4871   14.7428 C   0  0  0  0  0  0  0  0  0  0  0  0
    6.8905   -6.5012   15.3923 C   0  0  0  0  0  0  0  0  0  0  0  0
    7.9685   -6.5032   16.3614 C   0  0  0  0  0  0  0  0  0  0  0  0
   10.9889   -5.2154   20.4676 C   0  0  0  0  0  0  0  0  0  0  0  0
    9.7414   -5.9299   18.2356 C   0  0  0  0  0  0  0  0  0  0  0  0
    3.5416   -8.7348   15.3550 C   0  0  0  0  0  0  0  0  0  0  0  0
   10.1849   -2.3461   23.4526 C   0  0  0  0  0  0  0  0  0  0  0  0
    9.3618   -4.5108   16.5940 N   0  0  0  0  0  0  0  0  0  0  0  0
    6.0198   -6.9079   15.2828 C   0  0  0  0  0  0  0  0  0  0  0  0
    4.7181   -7.0942   15.8589 O   0  0  0  0  0  0  0  0  0  0  0  0
    0.5178   -9.9047   14.0336 C   0  0  0  0  0  0  0  0  0  0  0  0
  1  8  4  0
  1 18  1  0
  2 22  1  0
  3  7  1  0
  3 15  4  0
  4  6  4  0
  4 14  4  0
  5 10  1  0
  5 12  1  0
  6  9  4  0
  7 11  4  0
  7 24  4  0
  8 22  4  0
  9 30  4  0
 10 14  4  0
 10 30  4  0
 11 17  4  0
 12 16  4  0
 12 27  1  0
 13 17  4  0
 13 34  4  0
 16 20  4  0
 19 20  4  0
 19 31  4  0
 21 27  4  0
 21 28  4  0
 22 26  4  0
 23 26  4  0
 23 28  4  0
 23 31  4  0
 24 34  4  0
 25 26  4  0
 25 32  4  0
 32 33  4  0
M  END
$$$$

 Created by Python create_sdf_string function

 34107  0  0  0  0  0  0  0  0999 V2000
    4.9227   -8.7965   15.7355 S   0  0  0  0  0  0  0  0  0  0  0  0
    9.3837   -8.5689   17.0105 C   0  0  0  0  0  0  0  0  0  0  0  0
    2.7802   -8.8631   17.4589 C   0  0  0  0  0  0  0  0  0  0  0  0
   10.0597   -4.1909   25.6644 C   0  0  0  0  0  0  0  0  0  0  0  0
   12.4299   -4.1995   22.3873 C   0  0  0  0  0  0  0  0  0  0  0  0
    9.6522   -3.0068   25.7669 C   0  0  0  0  0  0  0  0  0  0  0  0
    1.7876   -9.8259   15.8833 C   0  0  0  0  0  0  0  0  0  0  0  0
    7.7457   -8.7726   16.9169 C   0  0  0  0  0  0  0  0  0  0  0  0
    9.3540   -2.1971   24.4128 C   0  0  0  0  0  0  0  0  0  0  0  0
    0.7958  -11.0540   16.7817 C   0  0  0  0  0  0  0  0  0  0  0  0
   11.1153   -4.2119   21.0858 N   0  0  0  0  0  0  0  0  0  0  0  0
   -0.0976  -11.4594   14.7929 C   0  0  0  0  0  0  0  0  0  0  0  0
   11.0706   -4.2519   24.0349 C   0  0  0  0  0  0  0  0  0  0  0  0
   11.1978   -3.5678   20.0783 C   0  0  0  0  0  0  0  0  0  0  0  0
   -0.3058  -11.1200   16.0123 C   0  0  0  0  0  0  0  0  0  0  0  0
    4.7266  -10.0102   15.5618 C   0  0  0  0  0  0  0  0  0  0  0  0
   10.0227   -3.6980   17.4232 O   0  0  0  0  0  0  0  0  0  0  0  0
   10.6887   -3.5176   18.0272 N   0  0  0  0  0  0  0  0  0  0  0  0
   10.3090   -5.4106   19.3929 C   0  0  0  0  0  0  0  0  0  0  0  0
    8.1583   -8.3049   17.6362 C   0  0  0  0  0  0  0  0  0  0  0  0
    9.7054   -5.4510   17.1206 C   0  0  0  0  0  0  0  0  0  0  0  0
    1.5943   -9.6978   14.6837 C   0  0  0  0  0  0  0  0  0  0  0  0
    6.3394   -6.1544   15.6503 C   0  0  0  0  0  0  0  0  0  0  0  0
    7.8557   -6.2785   16.3815 C   0  0  0  0  0  0  0  0  0  0  0  0
   10.7238   -5.3502   20.8082 F   0  0  0  0  0  0  0  0  0  0  0  0
    9.6204   -5.8103   18.6062 C   0  0  0  0  0  0  0  0  0  0  0  0
    3.9459   -8.7931   14.7118 C   0  0  0  0  0  0  0  0  0  0  0  0
   10.2563   -2.4595   23.6789 C   0  0  0  0  0  0  0  0  0  0  0  0
    9.0894   -4.3821   16.8152 N   0  0  0  0  0  0  0  0  0  0  0  0
    0.4535  -10.3765   14.4010 C   0  0  0  0  0  0  0  0  0  0  0  0
   10.7824   -3.3502   23.0571 He  0  0  0  0  0  0  0  0  0  0  0  0
    4.2152   -9.8423   17.1917 He  0  0  0  0  0  0  0  0  0  0  0  0
    6.5138   -6.6578   14.9779 He  0  0  0  0  0  0  0  0  0  0  0  0
    3.8504   -6.4936   16.3130 He  0  0  0  0  0  0  0  0  0  0  0  0
  1 10  3  0
  1 13  3  0
  1 14  4  0
  1 16  1  0
  1 20  1  0
  1 21  4  0
  2  5  4  0
  2  9  1  0
  2 10  3  0
  2 14  4  0
  2 15  3  0
  2 16  3  0
  2 20  1  0
  2 24  2  0
  2 25  1  0
  2 27  3  0
  3  7  1  0
  3  8  3  0
  3 10  3  0
  3 11  2  0
  3 15  3  0
  3 19  1  0
  3 22  2  0
  3 23  3  0
  3 30  3  0
  4  6  4  0
  4 12  4  0
  4 13  3  0
  4 15  4  0
  4 26  4  0
  5  9  3  0
  5 14  1  0
  5 21  2  0
  5 27  4  0
  6  9  4  0
  6 17  1  0
  6 20  1  0
  6 23  4  0
  6 25  2  0
  6 26  2  0
  6 27  3  0
  7 10  4  0
  7 12  4  0
  7 22  4  0
  8 14  3  0
  8 19  4  0
  8 25  1  0
  8 30  3  0
  9 12  1  0
  9 20  2  0
  9 23  3  0
  9 25  3  0
  9 26  4  0
  9 28  4  0
  9 29  4  0
  9 30  2  0
 10 15  4  0
 10 16  1  0
 10 24  3  0
 10 25  2  0
 10 27  1  0
 10 28  2  0
 11 14  4  0
 11 21  2  0
 11 27  4  0
 12 17  2  0
 12 20  1  0
 12 22  3  0
 12 24  3  0
 12 25  1  0
 12 26  3  0
 12 28  1  0
 12 30  4  0
 13 19  3  0
 14 18  1  0
 14 19  3  0
 14 24  2  0
 14 26  3  0
 15 19  3  0
 15 21  2  0
 16 29  3  0
 17 21  1  0
 17 27  4  0
 17 29  4  0
 18 23  2  0
 18 30  2  0
 19 27  1  0
 20 21  3  0
 20 22  2  0
 20 26  4  0
 21 24  4  0
 21 25  1  0
 21 27  3  0
 21 28  1  0
 21 29  2  0
 22 26  4  0
 22 27  1  0
 22 30  4  0
 24 27  2  0
 24 28  2  0
 24 30  4  0
 25 28  3  0
 25 30  2  0
 26 27  4  0
 26 29  2  0
 27 28  3  0
 27 29  4  0
M  END
$$$$

 Created by Python create_sdf_string function

 34 33  0  0  0  0  0  0  0  0999 V2000
    5.1550   -8.6518   15.7124 N   0  0  0  0  0  0  0  0  0  0  0  0
    8.6814   -8.1843   17.3772 C   0  0  0  0  0  0  0  0  0  0  0  0
    2.8325   -9.3544   16.7514 C   0  0  0  0  0  0  0  0  0  0  0  0
   10.3371   -4.0944   25.5694 C   0  0  0  0  0  0  0  0  0  0  0  0
   11.8198   -3.6146   22.1294 C   0  0  0  0  0  0  0  0  0  0  0  0
    9.5255   -2.9619   25.6482 C   0  0  0  0  0  0  0  0  0  0  0  0
    1.6474   -9.9161   16.0665 C   0  0  0  0  0  0  0  0  0  0  0  0
    7.1867   -8.8283   16.7136 C   0  0  0  0  0  0  0  0  0  0  0  0
    9.4678   -2.0499   24.5760 C   0  0  0  0  0  0  0  0  0  0  0  0
   10.9760   -3.4695   23.3252 C   0  0  0  0  0  0  0  0  0  0  0  0
    0.7251  -10.6635   16.8101 C   0  0  0  0  0  0  0  0  0  0  0  0
   11.1467   -3.9418   20.9231 N   0  0  0  0  0  0  0  0  0  0  0  0
   -0.4480  -11.1054   14.8513 C   0  0  0  0  0  0  0  0  0  0  0  0
   11.0467   -4.3817   24.4095 C   0  0  0  0  0  0  0  0  0  0  0  0
    3.8515   -9.3931   17.1769 O   0  0  0  0  0  0  0  0  0  0  0  0
   11.0581   -3.5461   19.7778 C   0  0  0  0  0  0  0  0  0  0  0  0
   -0.3007  -11.2733   16.1432 C   0  0  0  0  0  0  0  0  0  0  0  0
    5.3116   -9.3354   16.0143 C   0  0  0  0  0  0  0  0  0  0  0  0
   10.1478   -3.9221   17.6624 C   0  0  0  0  0  0  0  0  0  0  0  0
   10.7472   -3.3402   18.4502 N   0  0  0  0  0  0  0  0  0  0  0  0
   10.2400   -5.4831   19.3103 C   0  0  0  0  0  0  0  0  0  0  0  0
    8.2383   -8.1433   17.2258 C   0  0  0  0  0  0  0  0  0  0  0  0
    9.0708   -5.7074   17.2128 C   0  0  0  0  0  0  0  0  0  0  0  0
    1.4440   -9.7594   14.6866 C   0  0  0  0  0  0  0  0  0  0  0  0
    6.9645   -6.5309   15.7603 C   0  0  0  0  0  0  0  0  0  0  0  0
    8.0272   -6.4584   16.5489 C   0  0  0  0  0  0  0  0  0  0  0  0
   10.7747   -5.3112   20.7779 C   0  0  0  0  0  0  0  0  0  0  0  0
    9.6245   -6.0592   18.3580 C   0  0  0  0  0  0  0  0  0  0  0  0
    4.1050   -8.6865   15.3353 C   0  0  0  0  0  0  0  0  0  0  0  0
   10.1332   -2.3346   23.4219 C   0  0  0  0  0  0  0  0  0  0  0  0
    9.3521   -4.4904   16.8164 N   0  0  0  0  0  0  0  0  0  0  0  0
    6.1560   -7.2942   15.6663 C   0  0  0  0  0  0  0  0  0  0  0  0
    4.3160   -7.1120   15.6296 C   0  0  0  0  0  0  0  0  0  0  0  0
    0.3827  -10.3649   14.0885 C   0  0  0  0  0  0  0  0  0  0  0  0
  1 18  1  0
  1 29  1  0
  2 22  1  0
  3  7  1  0
  3 15  1  0
  4  6  4  0
  4 14  4  0
  5 10  1  0
  5 12  1  0
  6  9  4  0
  7 11  4  0
  7 24  4  0
  8 18  4  0
  8 22  4  0
  9 30  4  0
 10 14  4  0
 10 30  4  0
 11 17  4  0
 12 16  4  0
 12 27  4  0
 13 17  4  0
 13 34  4  0
 16 20  4  0
 19 20  4  0
 19 31  4  0
 21 27  4  0
 21 28  4  0
 23 26  4  0
 23 28  4  0
 23 31  4  0
 24 34  4  0
 25 26  4  0
 25 32  4  0
M  END
$$$$

 Created by Python create_sdf_string function

 34105  0  0  0  0  0  0  0  0999 V2000
    5.5872   -7.8039   15.9843 F   0  0  0  0  0  0  0  0  0  0  0  0
    3.3168   -9.2648   17.3179 C   0  0  0  0  0  0  0  0  0  0  0  0
   10.1746   -4.1370   25.4704 C   0  0  0  0  0  0  0  0  0  0  0  0
    9.3337   -2.9508   26.1090 C   0  0  0  0  0  0  0  0  0  0  0  0
    1.8653   -9.7646   15.9867 C   0  0  0  0  0  0  0  0  0  0  0  0
    7.1977   -9.0633   16.3952 C   0  0  0  0  0  0  0  0  0  0  0  0
    9.2055   -2.3583   24.4848 C   0  0  0  0  0  0  0  0  0  0  0  0
   10.8907   -3.0021   23.1437 C   0  0  0  0  0  0  0  0  0  0  0  0
    1.1645  -10.5640   16.6121 C   0  0  0  0  0  0  0  0  0  0  0  0
   10.7844   -4.3228   20.6507 N   0  0  0  0  0  0  0  0  0  0  0  0
   -0.1593  -10.8799   15.4907 C   0  0  0  0  0  0  0  0  0  0  0  0
   10.8397   -4.7666   24.7164 C   0  0  0  0  0  0  0  0  0  0  0  0
    3.1905  -11.6119   17.6405 N   0  0  0  0  0  0  0  0  0  0  0  0
   11.3290   -4.8918   19.7057 F   0  0  0  0  0  0  0  0  0  0  0  0
   -0.3715  -11.1336   15.6225 C   0  0  0  0  0  0  0  0  0  0  0  0
    6.1241   -9.2188   16.6507 C   0  0  0  0  0  0  0  0  0  0  0  0
    9.8253   -4.1205   17.8636 C   0  0  0  0  0  0  0  0  0  0  0  0
   11.1307   -3.2149   18.2510 N   0  0  0  0  0  0  0  0  0  0  0  0
   10.3090   -5.5566   19.3724 C   0  0  0  0  0  0  0  0  0  0  0  0
    9.1199   -8.4303   16.9805 F   0  0  0  0  0  0  0  0  0  0  0  0
    9.2326   -5.6522   17.9546 P   0  0  0  0  0  0  0  0  0  0  0  0
    1.3580   -9.7821   14.9416 C   0  0  0  0  0  0  0  0  0  0  0  0
    7.2639   -6.6214   16.0653 N   0  0  0  0  0  0  0  0  0  0  0  0
    9.6676   -5.5633   18.4693 C   0  0  0  0  0  0  0  0  0  0  0  0
    3.6398   -8.7794   15.7395 F   0  0  0  0  0  0  0  0  0  0  0  0
    9.9177   -2.7096   23.2604 C   0  0  0  0  0  0  0  0  0  0  0  0
    9.4153   -4.2668   16.7882 Br  0  0  0  0  0  0  0  0  0  0  0  0
    6.3027   -7.7451   15.9966 S   0  0  0  0  0  0  0  0  0  0  0  0
    4.3159   -7.5092   14.4790 C   0  0  0  0  0  0  0  0  0  0  0  0
    0.2909  -10.0179   13.7372 C   0  0  0  0  0  0  0  0  0  0  0  0
    9.3595   -7.2931   17.8766 He  0  0  0  0  0  0  0  0  0  0  0  0
   11.2139   -3.6387   23.5824 He  0  0  0  0  0  0  0  0  0  0  0  0
    7.6860   -6.9186   16.4170 He  0  0  0  0  0  0  0  0  0  0  0  0
    9.9512   -5.8405   20.7481 He  0  0  0  0  0  0  0  0  0  0  0  0
  1  7  2  0
  1 15  4  0
  1 16  1  0
  1 19  1  0
  1 21  3  0
  1 22  1  0
  1 27  4  0
  1 30  4  0
  2  5  1  0
  2  7  4  0
  2 13  1  0
  2 15  4  0
  2 19  4  0
  2 20  2  0
  2 25  4  0
  2 28  3  0
  3 11  4  0
  3 12  4  0
  3 14  4  0
  3 19  4  0
  3 29  3  0
  4  7  4  0
  4 11  2  0
  4 24  3  0
  4 25  1  0
  5  9  4  0
  5 13  2  0
  5 22  3  0
  5 23  2  0
  5 25  3  0
  5 26  4  0
  5 27  2  0
  5 29  2  0
  6 13  1  0
  6 16  1  0
  6 20  1  0
  6 29  1  0
  7 21  2  0
  7 26  4  0
  7 30  2  0
  8 12  4  0
  8 13  1  0
  8 15  3  0
  8 19  1  0
  8 20  2  0
  8 22  2  0
  8 26  4  0
  8 29  4  0
  9 13  3  0
  9 14  1  0
  9 15  3  0
  9 20  2  0
  9 25  3  0
  9 26  3  0
 10 14  4  0
 10 23  1  0
 10 25  4  0
 11 14  2  0
 11 15  2  0
 11 17  3  0
 11 19  2  0
 11 20  1  0
 11 26  1  0
 11 30  4  0
 12 18  3  0
 12 26  4  0
 12 27  2  0
 13 14  3  0
 13 16  4  0
 13 20  2  0
 13 27  3  0
 13 30  3  0
 14 19  3  0
 14 21  3  0
 14 30  2  0
 15 20  4  0
 16 17  4  0
 16 23  2  0
 17 18  4  0
 17 20  3  0
 17 27  4  0
 17 28  2  0
 18 21  1  0
 18 23  2  0
 18 25  2  0
 19 21  4  0
 19 24  4  0
 19 25  3  0
 19 30  3  0
 20 23  2  0
 20 25  1  0
 20 26  3  0
 21 22  1  0
 21 23  4  0
 21 24  2  0
 21 29  2  0
 22 28  4  0
 22 30  4  0
 23 24  4  0
 23 27  2  0
 23 28  4  0
 24 25  1  0
 25 26  3  0
 25 29  4  0
 29 30  4  0
M  END
$$$$

 Created by Python create_sdf_string function

 34 36  0  0  0  0  0  0  0  0999 V2000
    5.3940   -8.1667   16.0465 N   0  0  0  0  0  0  0  0  0  0  0  0
    9.2789   -7.6090   17.9996 C   0  0  0  0  0  0  0  0  0  0  0  0
    3.2012   -9.5723   16.9018 C   0  0  0  0  0  0  0  0  0  0  0  0
   10.2686   -4.0955   25.7138 C   0  0  0  0  0  0  0  0  0  0  0  0
   11.7046   -3.7256   22.2001 C   0  0  0  0  0  0  0  0  0  0  0  0
    9.3873   -2.9871   25.7594 C   0  0  0  0  0  0  0  0  0  0  0  0
    1.8685   -9.7913   15.9922 C   0  0  0  0  0  0  0  0  0  0  0  0
    7.3746   -9.1527   16.7097 C   0  0  0  0  0  0  0  0  0  0  0  0
    9.3380   -2.1020   24.6623 C   0  0  0  0  0  0  0  0  0  0  0  0
   10.8246   -3.5388   23.4370 C   0  0  0  0  0  0  0  0  0  0  0  0
    1.0634  -10.5594   16.6839 C   0  0  0  0  0  0  0  0  0  0  0  0
   11.0650   -4.1105   21.0592 N   0  0  0  0  0  0  0  0  0  0  0  0
   -0.4487  -10.8210   14.8063 C   0  0  0  0  0  0  0  0  0  0  0  0
   10.9360   -4.3824   24.5505 C   0  0  0  0  0  0  0  0  0  0  0  0
    3.3883  -10.1398   17.7215 N   0  0  0  0  0  0  0  0  0  0  0  0
   11.0085   -3.6812   19.9349 C   0  0  0  0  0  0  0  0  0  0  0  0
   -0.1738  -11.0951   16.0716 C   0  0  0  0  0  0  0  0  0  0  0  0
    5.9966   -9.2705   16.5793 C   0  0  0  0  0  0  0  0  0  0  0  0
   10.3142   -3.9668   17.7556 C   0  0  0  0  0  0  0  0  0  0  0  0
   10.8707   -3.4084   18.6996 N   0  0  0  0  0  0  0  0  0  0  0  0
   10.2531   -5.7268   19.4242 C   0  0  0  0  0  0  0  0  0  0  0  0
    8.3183   -8.1332   17.1110 C   0  0  0  0  0  0  0  0  0  0  0  0
    9.3008   -5.8870   17.5077 C   0  0  0  0  0  0  0  0  0  0  0  0
    1.4320   -9.4833   14.7012 C   0  0  0  0  0  0  0  0  0  0  0  0
    7.3779   -6.2758   16.2287 C   0  0  0  0  0  0  0  0  0  0  0  0
    7.8829   -6.8179   16.6431 C   0  0  0  0  0  0  0  0  0  0  0  0
   10.5297   -5.8691   20.7397 C   0  0  0  0  0  0  0  0  0  0  0  0
    9.8986   -5.9057   18.5843 C   0  0  0  0  0  0  0  0  0  0  0  0
    3.5042   -8.9524   16.1416 N   0  0  0  0  0  0  0  0  0  0  0  0
    9.9886   -2.4137   23.5235 C   0  0  0  0  0  0  0  0  0  0  0  0
    9.5370   -4.3406   16.7410 C   0  0  0  0  0  0  0  0  0  0  0  0
    6.2840   -7.0499   15.8675 C   0  0  0  0  0  0  0  0  0  0  0  0
    4.1187   -8.1548   15.4262 C   0  0  0  0  0  0  0  0  0  0  0  0
    0.3404   -9.9996   14.0928 C   0  0  0  0  0  0  0  0  0  0  0  0
  1 18  4  0
  1 32  4  0
  1 33  1  0
  2 22  4  0
  3  7  1  0
  3 15  4  0
  3 29  4  0
  4  6  4  0
  4 14  4  0
  5 10  1  0
  5 12  1  0
  6  9  4  0
  7 11  4  0
  7 24  4  0
  7 29  1  0
  8 18  1  0
  8 22  1  0
  9 30  4  0
 10 14  4  0
 10 30  4  0
 11 17  4  0
 12 16  4  0
 13 17  4  0
 13 34  4  0
 16 20  4  0
 19 20  4  0
 19 31  4  0
 21 27  4  0
 21 28  4  0
 22 26  4  0
 23 28  4  0
 23 31  4  0
 24 34  4  0
 25 26  4  0
 25 32  4  0
 29 33  1  0
M  END
$$$$

 Created by Python create_sdf_string function

 34 84  0  0  0  0  0  0  0  0999 V2000
    4.9961   -8.1398   15.6177 N   0  0  0  0  0  0  0  0  0  0  0  0
    9.8054   -7.6601   17.9917 S   0  0  0  0  0  0  0  0  0  0  0  0
    2.2389   -9.1720   17.5506 C   0  0  0  0  0  0  0  0  0  0  0  0
   10.1513   -4.1442   25.8230 C   0  0  0  0  0  0  0  0  0  0  0  0
   12.1180   -3.7674   22.3519 C   0  0  0  0  0  0  0  0  0  0  0  0
    9.3052   -2.7051   26.0256 C   0  0  0  0  0  0  0  0  0  0  0  0
    2.5402  -10.0911   16.0511 C   0  0  0  0  0  0  0  0  0  0  0  0
    7.3262   -9.4006   16.5034 C   0  0  0  0  0  0  0  0  0  0  0  0
    9.4878   -1.7469   24.7033 C   0  0  0  0  0  0  0  0  0  0  0  0
    1.3729  -10.2489   16.8042 C   0  0  0  0  0  0  0  0  0  0  0  0
   11.2281   -3.9855   21.0173 N   0  0  0  0  0  0  0  0  0  0  0  0
   10.9183   -4.3792   24.5526 Cl  0  0  0  0  0  0  0  0  0  0  0  0
    3.1691  -10.0623   16.9889 N   0  0  0  0  0  0  0  0  0  0  0  0
   11.2413   -4.6445   20.6970 Cl  0  0  0  0  0  0  0  0  0  0  0  0
   -0.4070  -10.7303   15.9897 C   0  0  0  0  0  0  0  0  0  0  0  0
    5.5298   -8.6967   15.7517 C   0  0  0  0  0  0  0  0  0  0  0  0
   10.4501   -4.3374   17.9834 C   0  0  0  0  0  0  0  0  0  0  0  0
   10.9380   -2.9951   18.5705 N   0  0  0  0  0  0  0  0  0  0  0  0
   10.2045   -5.8610   18.9605 F   0  0  0  0  0  0  0  0  0  0  0  0
    8.3242   -5.6242   17.9698 O   0  0  0  0  0  0  0  0  0  0  0  0
    1.2242   -9.3419   14.4563 C   0  0  0  0  0  0  0  0  0  0  0  0
    8.1386   -5.8719   16.4090 Cl  0  0  0  0  0  0  0  0  0  0  0  0
    7.8140   -6.8690   16.5232 C   0  0  0  0  0  0  0  0  0  0  0  0
   10.4504   -5.6555   19.5962 C   0  0  0  0  0  0  0  0  0  0  0  0
    9.6110   -5.7410   18.3436 C   0  0  0  0  0  0  0  0  0  0  0  0
    3.5318   -9.5351   16.0562 N   0  0  0  0  0  0  0  0  0  0  0  0
   10.0504   -2.3821   23.4481 C   0  0  0  0  0  0  0  0  0  0  0  0
    9.4174   -4.3760   16.4659 C   0  0  0  0  0  0  0  0  0  0  0  0
    0.4295   -9.8518   14.2527 C   0  0  0  0  0  0  0  0  0  0  0  0
   10.9001   -4.1171   23.4144 He  0  0  0  0  0  0  0  0  0  0  0  0
    0.1062  -10.8923   15.3934 He  0  0  0  0  0  0  0  0  0  0  0  0
    7.3556   -8.2335   17.1485 He  0  0  0  0  0  0  0  0  0  0  0  0
    6.4076   -7.5023   15.1721 He  0  0  0  0  0  0  0  0  0  0  0  0
    3.9701   -9.0619   15.8993 He  0  0  0  0  0  0  0  0  0  0  0  0
  1  2  4  0
  1  4  2  0
  1 18  4  0
  1 19  4  0
  1 21  1  0
  1 24  2  0
  1 28  1  0
  2  3  2  0
  2  6  2  0
  2 10  3  0
  2 19  3  0
  2 21  4  0
  2 23  3  0
  2 24  2  0
  2 29  3  0
  3  9  4  0
  3 13  3  0
  3 18  1  0
  3 26  4  0
  4 12  4  0
  4 13  3  0
  4 22  3  0
  4 26  2  0
  5  9  1  0
  5 12  3  0
  5 14  3  0
  5 22  1  0
  6  9  4  0
  6 14  1  0
  6 20  3  0
  6 26  1  0
  6 28  2  0
  7 10  1  0
  7 20  4  0
  7 21  4  0
  7 26  1  0
  8 12  1  0
  8 14  4  0
  8 17  3  0
  9 13  1  0
  9 15  2  0
  9 20  1  0
  9 27  4  0
 10 11  1  0
 10 15  1  0
 10 26  3  0
 10 28  2  0
 11 26  3  0
 12 14  2  0
 13 16  2  0
 13 23  1  0
 13 24  3  0
 14 18  4  0
 14 20  1  0
 14 22  3  0
 14 25  3  0
 14 28  1  0
 14 29  4  0
 15 17  1  0
 15 27  1  0
 16 19  3  0
 16 22  3  0
 16 23  1  0
 16 25  3  0
 16 27  4  0
 17 18  4  0
 17 28  4  0
 18 24  1  0
 18 27  1  0
 19 22  1  0
 19 25  3  0
 19 29  4  0
 20 22  3  0
 20 27  1  0
 20 28  4  0
 20 29  1  0
 21 29  4  0
 22 24  2  0
 22 26  1  0
 22 28  4  0
 22 29  4  0
 23 24  1  0
 24 25  1  0
 26 29  2  0
M  END
$$$$

 Created by Python create_sdf_string function

 34 37  0  0  0  0  0  0  0  0999 V2000
    5.1571   -8.3031   15.6109 C   0  0  0  0  0  0  0  0  0  0  0  0
    9.2172   -7.9159   18.1400 S   0  0  0  0  0  0  0  0  0  0  0  0
    2.4911  -10.0400   17.7090 N   0  0  0  0  0  0  0  0  0  0  0  0
   10.1950   -3.9899   25.7946 C   0  0  0  0  0  0  0  0  0  0  0  0
   11.7296   -4.0233   22.4631 C   0  0  0  0  0  0  0  0  0  0  0  0
    9.4671   -2.7967   25.7943 C   0  0  0  0  0  0  0  0  0  0  0  0
    1.7745   -9.6627   15.8208 C   0  0  0  0  0  0  0  0  0  0  0  0
    7.1225   -9.1438   16.7629 C   0  0  0  0  0  0  0  0  0  0  0  0
    9.4520   -1.9708   24.6685 C   0  0  0  0  0  0  0  0  0  0  0  0
   10.8936   -3.5685   23.5889 C   0  0  0  0  0  0  0  0  0  0  0  0
    1.1169  -10.2730   16.7656 C   0  0  0  0  0  0  0  0  0  0  0  0
   11.0999   -4.0964   21.1987 N   0  0  0  0  0  0  0  0  0  0  0  0
   -0.5209  -10.7686   15.0272 C   0  0  0  0  0  0  0  0  0  0  0  0
   10.8956   -4.3607   24.6874 C   0  0  0  0  0  0  0  0  0  0  0  0
    3.4314   -9.4980   17.6537 N   0  0  0  0  0  0  0  0  0  0  0  0
   11.1016   -4.1426   20.2532 C   0  0  0  0  0  0  0  0  0  0  0  0
   -0.1786  -10.8616   16.2383 C   0  0  0  0  0  0  0  0  0  0  0  0
    5.9232   -8.8296   15.8604 C   0  0  0  0  0  0  0  0  0  0  0  0
   10.3791   -3.8651   17.8644 C   0  0  0  0  0  0  0  0  0  0  0  0
   11.0055   -3.4014   18.7979 N   0  0  0  0  0  0  0  0  0  0  0  0
   10.2819   -6.0454   19.2531 C   0  0  0  0  0  0  0  0  0  0  0  0
    7.9624   -8.1522   17.0406 C   0  0  0  0  0  0  0  0  0  0  0  0
    8.9824   -5.8656   17.2388 N   0  0  0  0  0  0  0  0  0  0  0  0
    1.3678   -9.5439   14.4470 C   0  0  0  0  0  0  0  0  0  0  0  0
    7.7249   -6.0316   16.1659 C   0  0  0  0  0  0  0  0  0  0  0  0
    7.7087   -6.9657   16.4737 C   0  0  0  0  0  0  0  0  0  0  0  0
   10.3463   -5.5981   19.2728 C   0  0  0  0  0  0  0  0  0  0  0  0
    9.9042   -5.9157   18.6289 C   0  0  0  0  0  0  0  0  0  0  0  0
    3.1074   -9.2081   16.3198 N   0  0  0  0  0  0  0  0  0  0  0  0
   10.1440   -2.3759   23.5754 C   0  0  0  0  0  0  0  0  0  0  0  0
    9.3547   -4.4022   16.7666 C   0  0  0  0  0  0  0  0  0  0  0  0
    6.4375   -6.8196   15.3056 C   0  0  0  0  0  0  0  0  0  0  0  0
    4.0105   -8.8369   16.0599 C   0  0  0  0  0  0  0  0  0  0  0  0
    0.2090  -10.1112   14.1071 C   0  0  0  0  0  0  0  0  0  0  0  0
  1 18  4  0
  1 32  4  0
  1 33  1  0
  2 22  4  0
  3 11  4  0
  3 15  4  0
  4  6  4  0
  4 14  4  0
  5 10  1  0
  5 12  1  0
  6  9  4  0
  7 11  4  0
  7 24  4  0
  7 29  4  0
  8 18  4  0
  8 22  4  0
  9 30  4  0
 10 14  4  0
 10 30  4  0
 11 17  4  0
 12 16  1  0
 13 17  4  0
 13 34  4  0
 16 20  4  0
 19 20  4  0
 19 31  4  0
 21 27  4  0
 21 28  4  0
 22 26  4  0
 23 25  4  0
 23 28  4  0
 23 31  4  0
 24 34  4  0
 25 26  4  0
 25 32  4  0
 27 28  4  0
 29 33  1  0
M  END
$$$$

 Created by Python create_sdf_string function

 34 97  0  0  0  0  0  0  0  0999 V2000
    5.4105   -8.9299   15.8700 N   0  0  0  0  0  0  0  0  0  0  0  0
    9.7013   -7.2376   17.2062 S   0  0  0  0  0  0  0  0  0  0  0  0
    1.5234  -10.1249   16.1649 N   0  0  0  0  0  0  0  0  0  0  0  0
    9.9620   -3.8603   26.1273 C   0  0  0  0  0  0  0  0  0  0  0  0
   11.6585   -3.4271   23.5581 S   0  0  0  0  0  0  0  0  0  0  0  0
    1.7049   -9.9035   15.7766 C   0  0  0  0  0  0  0  0  0  0  0  0
    7.1034   -9.2248   16.6806 F   0  0  0  0  0  0  0  0  0  0  0  0
    9.3963   -1.9430   24.6412 C   0  0  0  0  0  0  0  0  0  0  0  0
   11.0582   -3.5137   23.6194 C   0  0  0  0  0  0  0  0  0  0  0  0
    1.3253  -10.1560   16.5491 C   0  0  0  0  0  0  0  0  0  0  0  0
   10.8496   -4.2006   21.1304 N   0  0  0  0  0  0  0  0  0  0  0  0
   10.5813   -4.4303   24.2741 C   0  0  0  0  0  0  0  0  0  0  0  0
    4.2911  -10.8493   17.2365 S   0  0  0  0  0  0  0  0  0  0  0  0
   10.6089   -4.1801   18.9509 O   0  0  0  0  0  0  0  0  0  0  0  0
    0.0748  -10.6062   15.6520 C   0  0  0  0  0  0  0  0  0  0  0  0
   10.4060   -3.6050   17.7033 C   0  0  0  0  0  0  0  0  0  0  0  0
   11.0761   -3.7866   19.0075 N   0  0  0  0  0  0  0  0  0  0  0  0
   10.3967   -6.1623   19.0137 C   0  0  0  0  0  0  0  0  0  0  0  0
    8.7640   -5.3317   16.8673 F   0  0  0  0  0  0  0  0  0  0  0  0
    1.0912   -9.7255   14.0418 C   0  0  0  0  0  0  0  0  0  0  0  0
    7.4899   -5.3320   16.1579 S   0  0  0  0  0  0  0  0  0  0  0  0
    7.8412   -6.5894   16.4982 C   0  0  0  0  0  0  0  0  0  0  0  0
    9.6798   -5.2799   19.9808 C   0  0  0  0  0  0  0  0  0  0  0  0
    9.6436   -5.9598   19.1139 C   0  0  0  0  0  0  0  0  0  0  0  0
    3.3518   -9.1970   14.7122 N   0  0  0  0  0  0  0  0  0  0  0  0
   10.4048   -2.1229   23.3668 O   0  0  0  0  0  0  0  0  0  0  0  0
    9.7186   -4.2365   16.1103 C   0  0  0  0  0  0  0  0  0  0  0  0
    4.2597   -8.9809   16.0587 O   0  0  0  0  0  0  0  0  0  0  0  0
   -0.0070  -10.0366   13.7728 N   0  0  0  0  0  0  0  0  0  0  0  0
    9.7318   -2.9580   25.9507 He  0  0  0  0  0  0  0  0  0  0  0  0
   -0.7456   -9.7843   14.9323 He  0  0  0  0  0  0  0  0  0  0  0  0
    5.7209   -8.6059   15.1539 He  0  0  0  0  0  0  0  0  0  0  0  0
    7.7596   -7.6099   17.5384 He  0  0  0  0  0  0  0  0  0  0  0  0
    6.5135   -6.8978   16.0370 He  0  0  0  0  0  0  0  0  0  0  0  0
  1  2  4  0
  1  3  2  0
  1  4  3  0
  1  8  2  0
  1  9  3  0
  1 14  2  0
  1 18  2  0
  1 22  2  0
  1 27  1  0
  2  4  2  0
  2  5  2  0
  2  9  2  0
  2 10  1  0
  2 11  1  0
  2 14  1  0
  2 22  3  0
  2 28  4  0
  3  4  4  0
  3  6  3  0
  3  7  4  0
  3  8  1  0
  3  9  3  0
  3 11  4  0
  3 13  4  0
  3 20  2  0
  3 21  3  0
  3 22  2  0
  3 24  3  0
  3 29  1  0
  4 12  4  0
  4 18  4  0
  4 19  3  0
  4 21  4  0
  5  9  1  0
  5 10  4  0
  5 14  4  0
  5 18  1  0
  5 25  4  0
  5 29  1  0
  6 19  3  0
  6 20  4  0
  6 25  4  0
  6 27  2  0
  6 28  1  0
  7 10  3  0
  7 11  4  0
  7 15  1  0
  7 17  2  0
  8 24  2  0
  9 12  4  0
  9 13  3  0
  9 14  3  0
  9 20  3  0
  9 26  4  0
  9 28  3  0
 10 11  3  0
 10 15  4  0
 10 17  4  0
 10 18  2  0
 10 19  4  0
 10 28  4  0
 11 14  3  0
 11 23  3  0
 12 15  1  0
 12 21  2  0
 12 23  3  0
 13 20  3  0
 13 22  4  0
 13 24  3  0
 14 15  4  0
 14 16  3  0
 14 17  4  0
 14 21  4  0
 14 25  4  0
 14 27  2  0
 15 16  4  0
 16 17  4  0
 16 22  4  0
 16 25  4  0
 16 27  4  0
 17 19  4  0
 17 29  3  0
 18 23  4  0
 18 24  4  0
 18 28  4  0
 18 29  2  0
 19 20  4  0
 19 23  3  0
 19 24  4  0
 19 28  1  0
 20 29  4  0
 21 22  4  0
 21 23  3  0
 22 25  4  0
 23 24  4  0
 25 28  1  0
 27 28  2  0
M  END
$$$$

 Created by Python create_sdf_string function

 34 39  0  0  0  0  0  0  0  0999 V2000
    5.6190   -8.1270   15.9226 C   0  0  0  0  0  0  0  0  0  0  0  0
    9.0483   -7.4503   17.9325 S   0  0  0  0  0  0  0  0  0  0  0  0
    2.1694  -10.0907   17.0638 N   0  0  0  0  0  0  0  0  0  0  0  0
   10.1312   -3.9987   25.8382 C   0  0  0  0  0  0  0  0  0  0  0  0
   11.7286   -3.7858   22.5699 C   0  0  0  0  0  0  0  0  0  0  0  0
    9.5026   -2.7828   25.8763 C   0  0  0  0  0  0  0  0  0  0  0  0
    2.0610   -9.5722   15.3285 C   0  0  0  0  0  0  0  0  0  0  0  0
    7.3194   -8.9674   16.9620 C   0  0  0  0  0  0  0  0  0  0  0  0
    9.5139   -1.8958   24.8191 C   0  0  0  0  0  0  0  0  0  0  0  0
   10.8063   -3.4718   23.6695 C   0  0  0  0  0  0  0  0  0  0  0  0
    1.1712  -10.2856   16.6324 C   0  0  0  0  0  0  0  0  0  0  0  0
   10.9483   -4.1129   21.3472 N   0  0  0  0  0  0  0  0  0  0  0  0
   -0.7812  -10.4997   14.7854 C   0  0  0  0  0  0  0  0  0  0  0  0
   10.8040   -4.3820   24.6876 C   0  0  0  0  0  0  0  0  0  0  0  0
    3.7977   -9.8058   17.2862 S   0  0  0  0  0  0  0  0  0  0  0  0
   10.8232   -4.0307   19.2085 N   0  0  0  0  0  0  0  0  0  0  0  0
   -0.1487  -10.5866   16.1015 C   0  0  0  0  0  0  0  0  0  0  0  0
    6.1427   -8.8121   16.2804 C   0  0  0  0  0  0  0  0  0  0  0  0
   10.4986   -3.5866   17.5103 C   0  0  0  0  0  0  0  0  0  0  0  0
   10.7938   -3.6155   18.6670 N   0  0  0  0  0  0  0  0  0  0  0  0
   10.1457   -6.0155   19.2960 C   0  0  0  0  0  0  0  0  0  0  0  0
    7.9131   -7.7933   17.0183 C   0  0  0  0  0  0  0  0  0  0  0  0
    9.1212   -5.4087   16.9450 C   0  0  0  0  0  0  0  0  0  0  0  0
    1.2557   -9.5199   14.1886 C   0  0  0  0  0  0  0  0  0  0  0  0
    7.5382   -5.8282   15.9533 N   0  0  0  0  0  0  0  0  0  0  0  0
    7.7969   -6.7824   16.5467 C   0  0  0  0  0  0  0  0  0  0  0  0
   10.3977   -5.2505   19.6747 C   0  0  0  0  0  0  0  0  0  0  0  0
    9.7491   -6.0313   18.2856 C   0  0  0  0  0  0  0  0  0  0  0  0
    3.3779   -8.9977   15.0840 N   0  0  0  0  0  0  0  0  0  0  0  0
   10.1057   -2.2367   23.6878 C   0  0  0  0  0  0  0  0  0  0  0  0
    9.6767   -4.1808   16.5741 C   0  0  0  0  0  0  0  0  0  0  0  0
    6.1500   -6.8615   15.6200 C   0  0  0  0  0  0  0  0  0  0  0  0
    4.1480   -9.0707   15.9707 C   0  0  0  0  0  0  0  0  0  0  0  0
   -0.0181   -9.8888   13.9074 C   0  0  0  0  0  0  0  0  0  0  0  0
  1 18  4  0
  1 32  4  0
  1 33  1  0
  2 22  4  0
  2 28  4  0
  3  7  4  0
  3 11  4  0
  3 15  4  0
  4  6  4  0
  4 14  4  0
  5 10  1  0
  5 12  1  0
  6  9  4  0
  7 11  4  0
  7 24  4  0
  7 29  4  0
  8 18  4  0
  8 22  4  0
  9 30  4  0
 10 14  4  0
 10 30  4  0
 11 17  4  0
 12 27  1  0
 13 17  4  0
 13 34  4  0
 15 33  4  0
 16 20  4  0
 19 20  4  0
 19 31  4  0
 21 27  4  0
 21 28  4  0
 22 26  4  0
 23 25  4  0
 23 28  4  0
 23 31  4  0
 24 34  4  0
 25 26  4  0
 25 32  4  0
 29 33  4  0
M  END
$$$$

 Created by Python create_sdf_string function

 34 92  0  0  0  0  0  0  0  0999 V2000
    4.7814   -8.6450   16.5384 N   0  0  0  0  0  0  0  0  0  0  0  0
    9.4926   -7.2644   18.4887 P   0  0  0  0  0  0  0  0  0  0  0  0
    2.7467  -10.0463   16.6684 N   0  0  0  0  0  0  0  0  0  0  0  0
   10.1192   -3.9448   25.4191 C   0  0  0  0  0  0  0  0  0  0  0  0
   11.2422   -3.1148   22.4650 C   0  0  0  0  0  0  0  0  0  0  0  0
    9.7398   -2.6167   26.0179 F   0  0  0  0  0  0  0  0  0  0  0  0
    1.7658   -9.2408   15.1156 C   0  0  0  0  0  0  0  0  0  0  0  0
    7.2932   -8.9151   16.9696 C   0  0  0  0  0  0  0  0  0  0  0  0
    9.2195   -2.0145   24.7406 P   0  0  0  0  0  0  0  0  0  0  0  0
   10.2492   -3.8112   23.7215 C   0  0  0  0  0  0  0  0  0  0  0  0
    1.0548  -10.3706   16.6854 C   0  0  0  0  0  0  0  0  0  0  0  0
   10.9919   -3.8900   21.0088 C   0  0  0  0  0  0  0  0  0  0  0  0
   10.7328   -4.5848   24.9965 C   0  0  0  0  0  0  0  0  0  0  0  0
    3.3482   -9.6611   18.1777 S   0  0  0  0  0  0  0  0  0  0  0  0
   10.4216   -4.3481   19.3200 N   0  0  0  0  0  0  0  0  0  0  0  0
    6.9855   -7.9916   14.8052 C   0  0  0  0  0  0  0  0  0  0  0  0
   11.0030   -3.5381   18.4016 N   0  0  0  0  0  0  0  0  0  0  0  0
   10.1499   -5.9201   19.2358 C   0  0  0  0  0  0  0  0  0  0  0  0
    8.0785   -8.1886   16.6669 I   0  0  0  0  0  0  0  0  0  0  0  0
    1.5217   -9.9937   14.1690 C   0  0  0  0  0  0  0  0  0  0  0  0
    7.7112   -5.0447   15.3911 N   0  0  0  0  0  0  0  0  0  0  0  0
    7.9213   -6.8641   16.7740 C   0  0  0  0  0  0  0  0  0  0  0  0
   10.4437   -4.6912   20.2575 O   0  0  0  0  0  0  0  0  0  0  0  0
    9.4010   -6.4236   17.8272 C   0  0  0  0  0  0  0  0  0  0  0  0
    3.4286   -9.1234   16.6698 N   0  0  0  0  0  0  0  0  0  0  0  0
   10.5160   -2.3156   23.8251 C   0  0  0  0  0  0  0  0  0  0  0  0
    5.8292   -7.1290   16.6628 C   0  0  0  0  0  0  0  0  0  0  0  0
   -0.2840   -9.6136   13.9069 C   0  0  0  0  0  0  0  0  0  0  0  0
   -1.3750  -10.5918   14.7122 He  0  0  0  0  0  0  0  0  0  0  0  0
   -0.2016  -10.6013   15.9414 He  0  0  0  0  0  0  0  0  0  0  0  0
   10.5414   -3.7155   17.1445 He  0  0  0  0  0  0  0  0  0  0  0  0
    9.4900   -5.8252   17.0036 He  0  0  0  0  0  0  0  0  0  0  0  0
    9.8074   -3.8394   16.4059 He  0  0  0  0  0  0  0  0  0  0  0  0
    3.4349   -9.0542   16.1662 He  0  0  0  0  0  0  0  0  0  0  0  0
  1 14  2  0
  1 16  4  0
  1 17  2  0
  1 20  4  0
  1 22  1  0
  1 27  4  0
  2  3  1  0
  2  6  4  0
  2  8  3  0
  2 14  2  0
  2 17  3  0
  2 20  4  0
  3 10  1  0
  3 16  2  0
  3 21  4  0
  3 22  1  0
  3 23  1  0
  3 24  3  0
  4  6  4  0
  4 10  4  0
  4 13  4  0
  4 21  1  0
  4 27  2  0
  5  7  1  0
  5  9  2  0
  5 10  1  0
  5 11  2  0
  5 12  1  0
  5 21  2  0
  5 23  1  0
  5 24  4  0
  5 28  4  0
  6  9  4  0
  6 22  1  0
  7  9  1  0
  7 11  1  0
  7 15  4  0
  7 19  3  0
  7 20  4  0
  7 24  2  0
  7 25  2  0
  7 28  3  0
  8 12  3  0
  8 16  2  0
  8 19  4  0
  8 20  1  0
  9 14  1  0
  9 19  2  0
  9 26  4  0
  9 27  2  0
 10 14  1  0
 10 26  4  0
 10 27  4  0
 11 21  2  0
 11 22  2  0
 11 24  3  0
 11 25  4  0
 12 20  3  0
 12 24  3  0
 13 16  2  0
 13 18  1  0
 13 21  1  0
 13 28  2  0
 14 15  1  0
 14 16  2  0
 14 22  2  0
 14 25  1  0
 14 28  1  0
 15 17  4  0
 15 25  1  0
 16 19  4  0
 16 21  3  0
 16 23  4  0
 17 19  3  0
 17 23  1  0
 18 23  4  0
 18 24  4  0
 18 25  4  0
 18 27  2  0
 19 22  4  0
 19 24  4  0
 20 24  2  0
 20 27  4  0
 20 28  4  0
 21 22  1  0
 21 23  3  0
 21 25  2  0
 21 27  4  0
 23 25  3  0
 23 28  2  0
 25 26  4  0
 25 27  4  0
M  END
$$$$

 Created by Python create_sdf_string function

 34 32  0  0  0  0  0  0  0  0999 V2000
    5.1437   -8.3822   16.3569 C   0  0  0  0  0  0  0  0  0  0  0  0
    9.2797   -7.4909   18.1749 C   0  0  0  0  0  0  0  0  0  0  0  0
    2.5509   -9.6135   16.8497 N   0  0  0  0  0  0  0  0  0  0  0  0
   10.2394   -3.9514   25.7943 C   0  0  0  0  0  0  0  0  0  0  0  0
   11.4274   -3.7673   22.3795 C   0  0  0  0  0  0  0  0  0  0  0  0
    9.5798   -2.7777   25.9666 C   0  0  0  0  0  0  0  0  0  0  0  0
    1.6333   -9.5709   15.4424 C   0  0  0  0  0  0  0  0  0  0  0  0
    7.5963   -8.7288   16.9306 C   0  0  0  0  0  0  0  0  0  0  0  0
    9.4874   -1.8603   24.9322 C   0  0  0  0  0  0  0  0  0  0  0  0
   10.6949   -3.4327   23.5556 C   0  0  0  0  0  0  0  0  0  0  0  0
    0.8923  -10.2345   16.4870 C   0  0  0  0  0  0  0  0  0  0  0  0
   10.9314   -3.8032   21.1912 C   0  0  0  0  0  0  0  0  0  0  0  0
   -0.6907  -10.5448   14.8025 C   0  0  0  0  0  0  0  0  0  0  0  0
   10.7768   -4.3194   24.6054 C   0  0  0  0  0  0  0  0  0  0  0  0
    3.3730   -9.6491   17.5224 C   0  0  0  0  0  0  0  0  0  0  0  0
   10.6428   -4.4112   19.3915 N   0  0  0  0  0  0  0  0  0  0  0  0
   -0.2480  -10.6750   16.0316 C   0  0  0  0  0  0  0  0  0  0  0  0
    6.5549   -8.4409   15.3363 C   0  0  0  0  0  0  0  0  0  0  0  0
   10.5118   -3.5931   17.3044 C   0  0  0  0  0  0  0  0  0  0  0  0
   10.8522   -3.5258   18.5426 N   0  0  0  0  0  0  0  0  0  0  0  0
   10.0930   -5.6797   19.0545 C   0  0  0  0  0  0  0  0  0  0  0  0
    7.6507   -7.7134   16.6366 C   0  0  0  0  0  0  0  0  0  0  0  0
    9.2577   -5.4518   17.0215 C   0  0  0  0  0  0  0  0  0  0  0  0
    1.2181   -9.4278   14.2662 C   0  0  0  0  0  0  0  0  0  0  0  0
    7.9826   -5.5930   15.9015 N   0  0  0  0  0  0  0  0  0  0  0  0
    7.9334   -6.7216   16.4669 C   0  0  0  0  0  0  0  0  0  0  0  0
   10.7600   -4.8952   20.5432 O   0  0  0  0  0  0  0  0  0  0  0  0
    9.5406   -6.1307   18.0422 C   0  0  0  0  0  0  0  0  0  0  0  0
    4.0078   -8.4837   16.6225 N   0  0  0  0  0  0  0  0  0  0  0  0
   10.0369   -2.2265   23.7065 C   0  0  0  0  0  0  0  0  0  0  0  0
    9.6176   -4.2923   16.5070 C   0  0  0  0  0  0  0  0  0  0  0  0
    5.6365   -7.2982   16.6870 C   0  0  0  0  0  0  0  0  0  0  0  0
    3.7933   -8.7545   16.0590 C   0  0  0  0  0  0  0  0  0  0  0  0
    0.0415   -9.9392   13.8906 C   0  0  0  0  0  0  0  0  0  0  0  0
  1 32  4  0
  1 33  1  0
  2 28  1  0
  3 15  4  0
  4  6  4  0
  4 14  4  0
  5 10  1  0
  5 12  1  0
  6  9  4  0
  7 11  4  0
  7 24  4  0
  8 22  4  0
  9 30  4  0
 10 14  4  0
 10 30  4  0
 11 17  4  0
 12 27  1  0
 13 17  4  0
 13 34  4  0
 15 29  1  0
 16 20  4  0
 16 21  4  0
 19 20  4  0
 19 31  4  0
 21 28  4  0
 22 26  4  0
 23 28  4  0
 23 31  4  0
 24 34  4  0
 25 26  4  0
 29 32  4  0
 29 33  4  0
M  END
$$$$

 Created by Python create_sdf_string function

 34 59  0  0  0  0  0  0  0  0999 V2000
    6.7056   -8.7302   16.2522 O   0  0  0  0  0  0  0  0  0  0  0  0
    9.9723   -4.0475   25.7269 C   0  0  0  0  0  0  0  0  0  0  0  0
    9.7554   -2.5837   26.2235 C   0  0  0  0  0  0  0  0  0  0  0  0
    1.6227   -9.5030   15.6323 C   0  0  0  0  0  0  0  0  0  0  0  0
    7.3449   -9.0237   17.3067 C   0  0  0  0  0  0  0  0  0  0  0  0
    9.5630   -1.8551   24.9116 C   0  0  0  0  0  0  0  0  0  0  0  0
   10.6635   -3.0648   23.3819 C   0  0  0  0  0  0  0  0  0  0  0  0
    0.9099  -10.1843   16.5306 C   0  0  0  0  0  0  0  0  0  0  0  0
   10.6809   -3.3689   21.1622 F   0  0  0  0  0  0  0  0  0  0  0  0
   10.8107   -4.1187   24.6695 C   0  0  0  0  0  0  0  0  0  0  0  0
    2.8576  -10.2668   17.0261 P   0  0  0  0  0  0  0  0  0  0  0  0
   10.9953   -4.4660   19.4374 N   0  0  0  0  0  0  0  0  0  0  0  0
   -0.4800  -10.6037   15.8969 P   0  0  0  0  0  0  0  0  0  0  0  0
    6.4444   -7.5679   15.6444 B   0  0  0  0  0  0  0  0  0  0  0  0
   10.7461   -3.4433   17.1431 C   0  0  0  0  0  0  0  0  0  0  0  0
    9.8812   -5.3499   19.1727 C   0  0  0  0  0  0  0  0  0  0  0  0
    7.3386   -7.6748   17.8260 C   0  0  0  0  0  0  0  0  0  0  0  0
    9.1308   -5.6516   17.7954 C   0  0  0  0  0  0  0  0  0  0  0  0
    1.1990   -9.5083   13.9194 C   0  0  0  0  0  0  0  0  0  0  0  0
    9.6302   -6.0087   18.0473 C   0  0  0  0  0  0  0  0  0  0  0  0
    9.9307   -2.5409   23.7969 C   0  0  0  0  0  0  0  0  0  0  0  0
    9.9570   -4.4859   16.4823 I   0  0  0  0  0  0  0  0  0  0  0  0
    4.9556   -8.4755   17.2124 F   0  0  0  0  0  0  0  0  0  0  0  0
    2.9635   -8.4662   16.1720 C   0  0  0  0  0  0  0  0  0  0  0  0
    0.0061   -9.8369   14.0905 C   0  0  0  0  0  0  0  0  0  0  0  0
    9.5716   -7.9401   17.6711 He  0  0  0  0  0  0  0  0  0  0  0  0
    2.9273   -9.3314   17.0371 He  0  0  0  0  0  0  0  0  0  0  0  0
   11.8222   -3.7274   22.5498 He  0  0  0  0  0  0  0  0  0  0  0  0
   -0.6061  -10.9052   14.0413 He  0  0  0  0  0  0  0  0  0  0  0  0
   10.9146   -3.3077   18.5781 He  0  0  0  0  0  0  0  0  0  0  0  0
    7.9493   -5.8169   15.3773 He  0  0  0  0  0  0  0  0  0  0  0  0
    7.9659   -6.3673   15.8709 He  0  0  0  0  0  0  0  0  0  0  0  0
   10.9762   -5.0743   20.1239 He  0  0  0  0  0  0  0  0  0  0  0  0
    5.3470   -8.7878   16.5348 He  0  0  0  0  0  0  0  0  0  0  0  0
  1 10  1  0
  1 11  3  0
  1 14  1  0
  1 19  2  0
  2  3  4  0
  2 10  4  0
  2 15  2  0
  3 17  1  0
  3 24  4  0
  4  8  2  0
  4 13  1  0
  4 15  3  0
  4 19  4  0
  4 21  3  0
  4 23  1  0
  5 13  4  0
  5 18  1  0
  5 25  1  0
  6 17  2  0
  6 20  4  0
  6 21  4  0
  6 24  2  0
  7 10  4  0
  7 14  4  0
  7 15  3  0
  7 16  2  0
  7 21  4  0
  7 24  2  0
  8 13  2  0
  8 24  2  0
 10 11  1  0
 11 13  2  0
 11 20  1  0
 11 22  2  0
 12 15  3  0
 12 16  4  0
 12 17  1  0
 12 18  4  0
 12 22  1  0
 13 16  4  0
 13 18  3  0
 14 16  2  0
 14 21  2  0
 14 23  4  0
 15 18  1  0
 15 22  4  0
 16 18  4  0
 16 20  4  0
 16 23  4  0
 16 25  1  0
 17 18  4  0
 17 22  4  0
 17 23  1  0
 18 20  4  0
 18 25  3  0
 19 22  2  0
 19 25  4  0
 20 22  1  0
 23 25  3  0
M  END
$$$$

 Created by Python create_sdf_string function

 34 33  0  0  0  0  0  0  0  0999 V2000
    6.2367   -8.3430   15.9381 C   0  0  0  0  0  0  0  0  0  0  0  0
    9.2551   -7.6577   17.8896 C   0  0  0  0  0  0  0  0  0  0  0  0
    2.9779   -9.1946   16.7268 C   0  0  0  0  0  0  0  0  0  0  0  0
   10.2027   -3.9026   25.8774 C   0  0  0  0  0  0  0  0  0  0  0  0
   11.6522   -3.6257   22.6158 C   0  0  0  0  0  0  0  0  0  0  0  0
    9.6010   -2.6943   26.0488 C   0  0  0  0  0  0  0  0  0  0  0  0
    1.5646   -9.5586   15.6235 C   0  0  0  0  0  0  0  0  0  0  0  0
    7.1865   -8.6518   17.5522 C   0  0  0  0  0  0  0  0  0  0  0  0
    9.4821   -1.8226   24.9896 C   0  0  0  0  0  0  0  0  0  0  0  0
   10.7396   -3.3265   23.7002 C   0  0  0  0  0  0  0  0  0  0  0  0
    0.6833  -10.3918   16.4442 C   0  0  0  0  0  0  0  0  0  0  0  0
   11.0180   -3.5284   21.2987 C   0  0  0  0  0  0  0  0  0  0  0  0
   -0.6426  -10.6934   14.4816 C   0  0  0  0  0  0  0  0  0  0  0  0
   10.7858   -4.2425   24.7060 C   0  0  0  0  0  0  0  0  0  0  0  0
    3.1153   -9.7355   17.5273 N   0  0  0  0  0  0  0  0  0  0  0  0
   10.6501   -4.3484   19.2532 C   0  0  0  0  0  0  0  0  0  0  0  0
   -0.4404  -10.9265   15.7541 C   0  0  0  0  0  0  0  0  0  0  0  0
    6.5725   -7.3885   15.4942 C   0  0  0  0  0  0  0  0  0  0  0  0
   10.7219   -3.5372   17.1331 C   0  0  0  0  0  0  0  0  0  0  0  0
   10.9622   -3.3059   18.3411 N   0  0  0  0  0  0  0  0  0  0  0  0
   10.0348   -5.4582   18.8631 C   0  0  0  0  0  0  0  0  0  0  0  0
    7.8039   -7.8368   17.3835 C   0  0  0  0  0  0  0  0  0  0  0  0
    9.0972   -6.3110   17.6167 C   0  0  0  0  0  0  0  0  0  0  0  0
    1.2291   -9.3675   14.2918 C   0  0  0  0  0  0  0  0  0  0  0  0
    7.7848   -6.0050   15.5709 C   0  0  0  0  0  0  0  0  0  0  0  0
    7.8201   -6.5134   16.0039 C   0  0  0  0  0  0  0  0  0  0  0  0
   10.9479   -4.6965   20.5017 C   0  0  0  0  0  0  0  0  0  0  0  0
    9.4996   -5.6624   17.6148 C   0  0  0  0  0  0  0  0  0  0  0  0
    5.3037   -8.8987   16.9160 C   0  0  0  0  0  0  0  0  0  0  0  0
    9.9746   -2.1468   23.7740 C   0  0  0  0  0  0  0  0  0  0  0  0
    9.8693   -4.4341   16.6222 C   0  0  0  0  0  0  0  0  0  0  0  0
    4.7785   -8.8159   17.0845 C   0  0  0  0  0  0  0  0  0  0  0  0
    3.2701   -8.5924   15.7830 C   0  0  0  0  0  0  0  0  0  0  0  0
    0.1593   -9.9675   13.7626 C   0  0  0  0  0  0  0  0  0  0  0  0
  1 18  1  0
  2 23  1  0
  3 15  1  0
  3 33  1  0
  4  6  4  0
  4 14  4  0
  5 10  1  0
  5 12  1  0
  6  9  4  0
  7 11  4  0
  7 24  4  0
  7 33  1  0
  8 22  4  0
  8 29  4  0
  9 30  4  0
 10 14  4  0
 10 30  4  0
 11 17  4  0
 12 27  1  0
 13 17  4  0
 13 34  4  0
 16 20  4  0
 16 21  4  0
 16 27  1  0
 18 26  4  0
 19 20  4  0
 19 31  4  0
 21 28  4  0
 23 28  4  0
 24 34  4  0
 25 26  4  0
 28 31  4  0
 29 32  1  0
M  END
$$$$

 Created by Python create_sdf_string function

 34 79  0  0  0  0  0  0  0  0999 V2000
    5.3353   -8.8894   15.0891 C   0  0  0  0  0  0  0  0  0  0  0  0
    8.9022   -8.2875   18.2530 O   0  0  0  0  0  0  0  0  0  0  0  0
    3.1469   -8.9693   16.4789 C   0  0  0  0  0  0  0  0  0  0  0  0
   10.1231   -3.8637   26.3765 C   0  0  0  0  0  0  0  0  0  0  0  0
   12.3027   -3.8266   22.8121 C   0  0  0  0  0  0  0  0  0  0  0  0
    9.7107   -2.2608   25.6818 C   0  0  0  0  0  0  0  0  0  0  0  0
    1.5889   -9.3927   15.2482 C   0  0  0  0  0  0  0  0  0  0  0  0
    7.2679   -8.9084   17.6838 C   0  0  0  0  0  0  0  0  0  0  0  0
    9.4246   -1.9242   24.5875 C   0  0  0  0  0  0  0  0  0  0  0  0
   10.6705   -2.9750   23.6962 C   0  0  0  0  0  0  0  0  0  0  0  0
    0.8081  -10.4285   16.8436 C   0  0  0  0  0  0  0  0  0  0  0  0
   11.0098   -3.3255   21.6445 C   0  0  0  0  0  0  0  0  0  0  0  0
   -0.3548  -10.6825   15.0216 C   0  0  0  0  0  0  0  0  0  0  0  0
   10.5631   -4.1456   24.8799 C   0  0  0  0  0  0  0  0  0  0  0  0
    4.1139   -8.7770   17.2736 C   0  0  0  0  0  0  0  0  0  0  0  0
   -0.6778  -11.0647   15.9341 C   0  0  0  0  0  0  0  0  0  0  0  0
    6.4351   -7.3753   15.1734 F   0  0  0  0  0  0  0  0  0  0  0  0
   10.5569   -3.5000   16.8381 C   0  0  0  0  0  0  0  0  0  0  0  0
    9.9997   -5.6690   18.9677 C   0  0  0  0  0  0  0  0  0  0  0  0
    9.1652   -6.3162   16.7160 C   0  0  0  0  0  0  0  0  0  0  0  0
    1.7155   -9.1063   14.2004 C   0  0  0  0  0  0  0  0  0  0  0  0
    8.1131   -5.5590   15.2639 O   0  0  0  0  0  0  0  0  0  0  0  0
    7.8068   -6.3736   16.1985 C   0  0  0  0  0  0  0  0  0  0  0  0
   10.9137   -4.9654   21.0258 Cl  0  0  0  0  0  0  0  0  0  0  0  0
    9.3350   -5.3358   17.3778 C   0  0  0  0  0  0  0  0  0  0  0  0
   10.1182   -2.1905   24.0848 C   0  0  0  0  0  0  0  0  0  0  0  0
    5.7517   -8.7547   16.2236 C   0  0  0  0  0  0  0  0  0  0  0  0
    4.5597   -9.0715   15.1813 I   0  0  0  0  0  0  0  0  0  0  0  0
   11.5124   -4.6785   19.6196 He  0  0  0  0  0  0  0  0  0  0  0  0
   10.7744   -3.0938   18.3564 He  0  0  0  0  0  0  0  0  0  0  0  0
    6.6917   -8.1054   16.3901 He  0  0  0  0  0  0  0  0  0  0  0  0
    5.8037   -8.8677   16.3417 He  0  0  0  0  0  0  0  0  0  0  0  0
    9.8345   -4.7033   16.6186 He  0  0  0  0  0  0  0  0  0  0  0  0
    0.0039   -9.8085   13.9167 He  0  0  0  0  0  0  0  0  0  0  0  0
  1  2  3  0
  1  8  2  0
  1  9  1  0
  1 10  3  0
  1 11  1  0
  1 13  2  0
  1 17  1  0
  1 18  2  0
  1 22  3  0
  1 24  4  0
  1 28  2  0
  2  4  2  0
  2  7  3  0
  2 12  3  0
  2 17  3  0
  2 26  3  0
  2 28  3  0
  3  7  4  0
  3 12  3  0
  3 15  1  0
  3 19  2  0
  3 23  1  0
  4  5  4  0
  4  6  4  0
  4 14  4  0
  4 26  3  0
  4 28  4  0
  5  8  4  0
  5 10  1  0
  5 11  4  0
  5 16  3  0
  5 20  1  0
  5 22  3  0
  6  7  4  0
  6 19  1  0
  6 20  3  0
  6 23  4  0
  6 24  1  0
  7 11  4  0
  7 17  1  0
  7 21  4  0
  7 27  1  0
  7 28  1  0
  8 14  4  0
  8 20  2  0
  8 22  4  0
  8 28  4  0
  9 28  2  0
 10 18  2  0
 10 26  4  0
 11 13  1  0
 11 16  4  0
 12 13  2  0
 12 17  3  0
 12 18  4  0
 12 28  1  0
 14 24  4  0
 14 27  1  0
 15 21  4  0
 15 26  3  0
 16 21  3  0
 16 25  2  0
 16 28  1  0
 17 21  2  0
 17 22  3  0
 17 28  1  0
 18 22  4  0
 18 24  2  0
 18 28  4  0
 19 24  1  0
 19 25  4  0
 20 25  4  0
 20 28  3  0
 21 28  4  0
 22 24  2  0
 22 28  2  0
 23 27  3  0
 23 28  1  0
 25 27  2  0
M  END
$$$$

 Created by Python create_sdf_string function

 34 37  0  0  0  0  0  0  0  0999 V2000
    5.0891   -8.2947   15.1474 C   0  0  0  0  0  0  0  0  0  0  0  0
    8.6766   -7.8580   17.9974 C   0  0  0  0  0  0  0  0  0  0  0  0
    3.0473   -9.1339   16.0428 C   0  0  0  0  0  0  0  0  0  0  0  0
   10.0702   -3.6178   26.0724 C   0  0  0  0  0  0  0  0  0  0  0  0
   11.8236   -3.6405   22.7895 C   0  0  0  0  0  0  0  0  0  0  0  0
    9.3854   -2.4358   26.0001 C   0  0  0  0  0  0  0  0  0  0  0  0
    1.6730   -9.5840   15.6958 C   0  0  0  0  0  0  0  0  0  0  0  0
    7.4925   -8.4080   17.4205 C   0  0  0  0  0  0  0  0  0  0  0  0
    9.4439   -1.6479   24.8514 C   0  0  0  0  0  0  0  0  0  0  0  0
   10.8597   -3.2709   23.8720 C   0  0  0  0  0  0  0  0  0  0  0  0
    0.8349  -10.2625   16.5662 C   0  0  0  0  0  0  0  0  0  0  0  0
   11.2694   -3.5236   21.5183 C   0  0  0  0  0  0  0  0  0  0  0  0
   -0.6218  -10.6772   14.7655 C   0  0  0  0  0  0  0  0  0  0  0  0
   10.7982   -4.0831   25.0010 C   0  0  0  0  0  0  0  0  0  0  0  0
    3.7671   -9.1862   17.2085 C   0  0  0  0  0  0  0  0  0  0  0  0
   10.7157   -4.4991   19.2759 C   0  0  0  0  0  0  0  0  0  0  0  0
   -0.3121  -10.8239   16.0614 C   0  0  0  0  0  0  0  0  0  0  0  0
    6.1551   -7.5835   15.0158 C   0  0  0  0  0  0  0  0  0  0  0  0
   10.6982   -3.4147   17.2305 C   0  0  0  0  0  0  0  0  0  0  0  0
   10.9961   -3.3596   18.5661 C   0  0  0  0  0  0  0  0  0  0  0  0
   10.1125   -5.5865   18.8407 C   0  0  0  0  0  0  0  0  0  0  0  0
    7.0819   -7.6889   16.2975 C   0  0  0  0  0  0  0  0  0  0  0  0
    8.7450   -6.6705   17.1644 N   0  0  0  0  0  0  0  0  0  0  0  0
    1.2607   -9.4356   14.3623 C   0  0  0  0  0  0  0  0  0  0  0  0
    7.6464   -5.5094   15.4099 O   0  0  0  0  0  0  0  0  0  0  0  0
    7.8494   -6.5512   16.1517 C   0  0  0  0  0  0  0  0  0  0  0  0
   11.1479   -4.5039   20.7245 C   0  0  0  0  0  0  0  0  0  0  0  0
    9.6670   -5.5803   17.5852 C   0  0  0  0  0  0  0  0  0  0  0  0
    5.7413   -8.7020   16.5121 C   0  0  0  0  0  0  0  0  0  0  0  0
   10.0777   -2.0781   23.7622 C   0  0  0  0  0  0  0  0  0  0  0  0
    9.8994   -4.4772   16.7349 C   0  0  0  0  0  0  0  0  0  0  0  0
    5.0002   -8.9940   17.1062 C   0  0  0  0  0  0  0  0  0  0  0  0
    4.0128   -8.6778   14.9587 C   0  0  0  0  0  0  0  0  0  0  0  0
    0.1130   -9.9960   13.9224 C   0  0  0  0  0  0  0  0  0  0  0  0
  1 18  1  0
  1 33  2  0
  2  8  4  0
  2 23  4  0
  3  7  1  0
  3 15  4  0
  3 33  4  0
  4  6  4  0
  4 14  4  0
  5 10  1  0
  5 12  1  0
  6  9  4  0
  7 11  4  0
  7 24  4  0
  8 22  4  0
  9 30  4  0
 10 14  4  0
 10 30  4  0
 11 17  4  0
 12 27  1  0
 13 17  4  0
 13 34  4  0
 15 32  4  0
 16 20  4  0
 16 21  4  0
 16 27  1  0
 18 22  1  0
 19 20  4  0
 19 31  4  0
 21 28  4  0
 22 26  4  0
 23 26  4  0
 23 28  1  0
 24 34  4  0
 25 26  2  0
 28 31  4  0
 29 32  4  0
M  END
$$$$

 Created by Python create_sdf_string function

 34 75  0  0  0  0  0  0  0  0999 V2000
    8.2209   -8.1196   17.7322 C   0  0  0  0  0  0  0  0  0  0  0  0
    2.9763   -9.1056   15.0189 C   0  0  0  0  0  0  0  0  0  0  0  0
    9.6083   -2.5406   25.9081 C   0  0  0  0  0  0  0  0  0  0  0  0
    1.8047   -9.7600   15.8152 C   0  0  0  0  0  0  0  0  0  0  0  0
    7.5531   -8.4604   17.7818 C   0  0  0  0  0  0  0  0  0  0  0  0
    9.4596   -1.6530   24.7796 C   0  0  0  0  0  0  0  0  0  0  0  0
   10.9337   -3.5078   23.7552 C   0  0  0  0  0  0  0  0  0  0  0  0
    0.8192  -10.3111   16.2530 C   0  0  0  0  0  0  0  0  0  0  0  0
   11.3376   -3.4129   21.4416 C   0  0  0  0  0  0  0  0  0  0  0  0
   10.7096   -3.8347   25.0242 C   0  0  0  0  0  0  0  0  0  0  0  0
    3.9084  -10.1982   17.1753 C   0  0  0  0  0  0  0  0  0  0  0  0
   11.5386   -4.4992   19.5308 C   0  0  0  0  0  0  0  0  0  0  0  0
   -0.4000  -11.1006   16.1568 C   0  0  0  0  0  0  0  0  0  0  0  0
    6.3651   -7.9037   14.9615 C   0  0  0  0  0  0  0  0  0  0  0  0
   10.6010   -3.2748   17.4760 C   0  0  0  0  0  0  0  0  0  0  0  0
   11.0124   -3.4751   19.0712 C   0  0  0  0  0  0  0  0  0  0  0  0
   10.3480   -5.4160   19.0258 C   0  0  0  0  0  0  0  0  0  0  0  0
    6.6612   -8.2891   16.1407 C   0  0  0  0  0  0  0  0  0  0  0  0
    1.2715   -9.3658   14.3079 C   0  0  0  0  0  0  0  0  0  0  0  0
    6.3372   -5.7738   15.1817 O   0  0  0  0  0  0  0  0  0  0  0  0
    7.8704   -6.7247   16.3723 C   0  0  0  0  0  0  0  0  0  0  0  0
    5.8629   -8.9507   17.0360 C   0  0  0  0  0  0  0  0  0  0  0  0
   10.2699   -1.9200   23.7598 C   0  0  0  0  0  0  0  0  0  0  0  0
    9.6133   -4.7670   16.6820 C   0  0  0  0  0  0  0  0  0  0  0  0
    4.4935   -9.1167   16.5718 N   0  0  0  0  0  0  0  0  0  0  0  0
    4.0527   -8.5125   14.1859 C   0  0  0  0  0  0  0  0  0  0  0  0
    0.1104   -9.8903   13.9859 C   0  0  0  0  0  0  0  0  0  0  0  0
    5.9462   -9.1764   15.3508 He  0  0  0  0  0  0  0  0  0  0  0  0
   10.1186   -3.9508   25.9212 He  0  0  0  0  0  0  0  0  0  0  0  0
   11.7582   -4.2794   23.5538 He  0  0  0  0  0  0  0  0  0  0  0  0
   -1.0733  -11.4769   14.9370 He  0  0  0  0  0  0  0  0  0  0  0  0
    8.7114   -6.6119   17.6351 He  0  0  0  0  0  0  0  0  0  0  0  0
   10.7936   -3.7630   21.4176 He  0  0  0  0  0  0  0  0  0  0  0  0
    9.4323   -5.4687   17.4558 He  0  0  0  0  0  0  0  0  0  0  0  0
  1  2  2  0
  1  5  4  0
  1 12  4  0
  1 14  2  0
  1 25  4  0
  2  4  1  0
  2  7  3  0
  2 11  4  0
  2 12  1  0
  2 18  2  0
  2 19  3  0
  2 22  1  0
  2 23  2  0
  2 26  4  0
  3  6  4  0
  3 16  2  0
  3 18  1  0
  4  6  2  0
  4  8  4  0
  4 10  4  0
  4 14  1  0
  4 18  3  0
  4 19  4  0
  5 12  4  0
  5 15  4  0
  5 17  3  0
  5 18  4  0
  5 27  2  0
  6 14  4  0
  7 10  4  0
  7 11  2  0
  7 19  1  0
  7 23  4  0
  7 26  4  0
  8  9  1  0
  8 11  4  0
  8 13  4  0
  8 14  2  0
  8 18  4  0
  8 22  1  0
  8 25  2  0
  8 26  3  0
  9 13  1  0
  9 14  1  0
  9 19  2  0
 10 12  3  0
 10 16  3  0
 10 24  3  0
 11 20  4  0
 11 25  4  0
 13 14  2  0
 13 18  2  0
 13 25  1  0
 13 26  2  0
 14 16  1  0
 14 22  4  0
 14 23  3  0
 14 27  2  0
 15 16  4  0
 15 21  1  0
 15 24  4  0
 15 25  2  0
 16 26  3  0
 17 18  2  0
 17 22  4  0
 18 19  3  0
 18 21  4  0
 18 23  4  0
 18 27  1  0
 19 22  3  0
 19 27  4  0
 20 21  2  0
 22 25  3  0
 22 26  4  0
 23 25  2  0
M  END
$$$$

 Created by Python create_sdf_string function

 34 38  0  0  0  0  0  0  0  0999 V2000
    5.2465   -8.3971   14.9408 C   0  0  0  0  0  0  0  0  0  0  0  0
    8.7023   -7.7885   17.9929 C   0  0  0  0  0  0  0  0  0  0  0  0
    3.0004   -9.3723   15.7297 C   0  0  0  0  0  0  0  0  0  0  0  0
   10.0306   -3.6489   26.0537 C   0  0  0  0  0  0  0  0  0  0  0  0
   11.7792   -3.9034   22.9502 C   0  0  0  0  0  0  0  0  0  0  0  0
    9.3757   -2.4696   25.9749 C   0  0  0  0  0  0  0  0  0  0  0  0
    1.7015   -9.7300   15.4448 C   0  0  0  0  0  0  0  0  0  0  0  0
    7.7863   -8.4749   17.6704 C   0  0  0  0  0  0  0  0  0  0  0  0
    9.5001   -1.7139   24.8401 C   0  0  0  0  0  0  0  0  0  0  0  0
   10.8924   -3.3939   23.9250 C   0  0  0  0  0  0  0  0  0  0  0  0
    0.8941  -10.3980   16.3967 C   0  0  0  0  0  0  0  0  0  0  0  0
   11.5948   -3.5298   21.5507 C   0  0  0  0  0  0  0  0  0  0  0  0
   -0.7975  -10.9253   14.8835 C   0  0  0  0  0  0  0  0  0  0  0  0
   10.7836   -4.1415   25.0473 C   0  0  0  0  0  0  0  0  0  0  0  0
    3.6342   -9.4940   17.0164 C   0  0  0  0  0  0  0  0  0  0  0  0
   10.6891   -4.4080   19.4970 C   0  0  0  0  0  0  0  0  0  0  0  0
   -0.2767  -10.9930   16.1012 C   0  0  0  0  0  0  0  0  0  0  0  0
    6.0068   -7.7975   15.0541 C   0  0  0  0  0  0  0  0  0  0  0  0
   10.5973   -3.4812   17.3407 C   0  0  0  0  0  0  0  0  0  0  0  0
   10.9880   -3.3173   18.6575 C   0  0  0  0  0  0  0  0  0  0  0  0
   10.0849   -5.5671   19.0288 C   0  0  0  0  0  0  0  0  0  0  0  0
    6.9785   -7.7844   16.5737 N   0  0  0  0  0  0  0  0  0  0  0  0
    8.6621   -6.5331   17.3274 N   0  0  0  0  0  0  0  0  0  0  0  0
    1.0408   -9.6058   14.1854 C   0  0  0  0  0  0  0  0  0  0  0  0
    7.1131   -5.7251   15.4475 O   0  0  0  0  0  0  0  0  0  0  0  0
    7.6084   -6.5534   16.3797 C   0  0  0  0  0  0  0  0  0  0  0  0
   10.8744   -4.3641   20.9650 C   0  0  0  0  0  0  0  0  0  0  0  0
    9.5669   -5.5680   17.7581 C   0  0  0  0  0  0  0  0  0  0  0  0
    5.8839   -8.3899   16.4574 C   0  0  0  0  0  0  0  0  0  0  0  0
   10.2014   -2.1565   23.7877 C   0  0  0  0  0  0  0  0  0  0  0  0
    9.8163   -4.5770   16.9333 C   0  0  0  0  0  0  0  0  0  0  0  0
    4.9388   -9.1050   17.2221 N   0  0  0  0  0  0  0  0  0  0  0  0
    3.8568   -8.8404   14.7626 C   0  0  0  0  0  0  0  0  0  0  0  0
   -0.1997  -10.2215   13.9002 C   0  0  0  0  0  0  0  0  0  0  0  0
  1 18  4  0
  1 33  4  0
  2  8  4  0
  2 23  4  0
  3  7  1  0
  3 15  4  0
  3 33  4  0
  4  6  4  0
  4 14  4  0
  5 10  1  0
  5 12  1  0
  6  9  4  0
  7 11  4  0
  7 24  4  0
  8 22  4  0
  9 30  4  0
 10 14  4  0
 10 30  4  0
 11 17  4  0
 12 27  1  0
 13 17  4  0
 13 34  4  0
 15 32  4  0
 16 20  4  0
 16 21  4  0
 16 27  1  0
 18 29  4  0
 19 20  4  0
 19 31  4  0
 21 28  4  0
 22 26  4  0
 22 29  4  0
 23 26  4  0
 23 28  1  0
 24 34  4  0
 25 26  2  0
 28 31  4  0
 29 32  4  0
M  END
$$$$

 Created by Python create_sdf_string function

 34 72  0  0  0  0  0  0  0  0999 V2000
    4.5480   -9.0836   14.9335 C   0  0  0  0  0  0  0  0  0  0  0  0
    9.3681   -2.5688   26.1017 C   0  0  0  0  0  0  0  0  0  0  0  0
    1.9580   -9.7666   15.5259 C   0  0  0  0  0  0  0  0  0  0  0  0
    8.1229   -8.2677   17.7451 C   0  0  0  0  0  0  0  0  0  0  0  0
    9.6444   -1.8268   25.0432 C   0  0  0  0  0  0  0  0  0  0  0  0
   10.8807   -3.3796   23.8537 C   0  0  0  0  0  0  0  0  0  0  0  0
    0.9374  -10.3039   16.2534 C   0  0  0  0  0  0  0  0  0  0  0  0
   11.6135   -3.7280   21.7625 O   0  0  0  0  0  0  0  0  0  0  0  0
   10.6636   -4.1168   24.9404 C   0  0  0  0  0  0  0  0  0  0  0  0
    3.7766   -9.4887   17.3801 C   0  0  0  0  0  0  0  0  0  0  0  0
   -0.0929  -10.8947   15.7747 C   0  0  0  0  0  0  0  0  0  0  0  0
    5.8292   -8.2906   14.3821 C   0  0  0  0  0  0  0  0  0  0  0  0
   10.6271   -3.5177   17.4669 C   0  0  0  0  0  0  0  0  0  0  0  0
   10.8712   -3.4666   18.6357 C   0  0  0  0  0  0  0  0  0  0  0  0
   10.3360   -5.6695   18.8675 C   0  0  0  0  0  0  0  0  0  0  0  0
    6.4455   -7.6094   17.2790 N   0  0  0  0  0  0  0  0  0  0  0  0
    8.5973   -5.9634   17.7834 Br  0  0  0  0  0  0  0  0  0  0  0  0
    1.2727   -9.5967   14.3167 C   0  0  0  0  0  0  0  0  0  0  0  0
    8.0076   -5.5979   14.2311 C   0  0  0  0  0  0  0  0  0  0  0  0
    7.4809   -6.2804   16.3712 C   0  0  0  0  0  0  0  0  0  0  0  0
   10.6945   -3.9439   21.7560 C   0  0  0  0  0  0  0  0  0  0  0  0
    9.5034   -5.6501   17.6605 C   0  0  0  0  0  0  0  0  0  0  0  0
    5.5553   -7.8893   16.6258 C   0  0  0  0  0  0  0  0  0  0  0  0
    9.8338   -2.0080   23.8097 C   0  0  0  0  0  0  0  0  0  0  0  0
    9.7982   -4.4674   17.0699 C   0  0  0  0  0  0  0  0  0  0  0  0
    6.1661   -9.1326   16.4432 N   0  0  0  0  0  0  0  0  0  0  0  0
    4.4331   -9.5825   14.2989 C   0  0  0  0  0  0  0  0  0  0  0  0
   -0.0592  -10.1605   14.1353 C   0  0  0  0  0  0  0  0  0  0  0  0
    9.7724   -8.0857   17.9560 He  0  0  0  0  0  0  0  0  0  0  0  0
    1.8951   -9.5222   16.0524 He  0  0  0  0  0  0  0  0  0  0  0  0
   10.2181   -3.7525   25.8782 He  0  0  0  0  0  0  0  0  0  0  0  0
   11.4612   -2.5106   22.6067 He  0  0  0  0  0  0  0  0  0  0  0  0
   -2.3257  -11.1694   15.1010 He  0  0  0  0  0  0  0  0  0  0  0  0
   10.4609   -3.8735   19.6145 He  0  0  0  0  0  0  0  0  0  0  0  0
  1  8  4  0
  1  9  2  0
  1 11  3  0
  1 12  4  0
  1 14  1  0
  1 25  1  0
  1 27  4  0
  2  3  1  0
  2  5  4  0
  2 10  1  0
  2 19  1  0
  2 25  1  0
  3  6  3  0
  3  7  4  0
  3 18  4  0
  3 21  1  0
  4 17  2  0
  4 26  4  0
  5 12  1  0
  5 17  3  0
  5 19  4  0
  5 24  4  0
  6  9  4  0
  6 15  3  0
  6 16  1  0
  6 22  2  0
  6 24  4  0
  7 11  4  0
  7 27  4  0
  8 10  1  0
  8 12  4  0
  8 13  3  0
  8 21  1  0
  9 16  1  0
 10 14  1  0
 10 21  1  0
 10 24  2  0
 10 26  4  0
 11 15  2  0
 11 20  3  0
 11 21  4  0
 12 14  2  0
 12 20  4  0
 12 22  2  0
 12 23  4  0
 13 14  4  0
 13 23  2  0
 13 25  4  0
 13 28  4  0
 14 23  2  0
 14 28  3  0
 15 21  1  0
 15 22  2  0
 15 23  4  0
 15 26  2  0
 15 27  2  0
 15 28  1  0
 16 24  1  0
 17 20  4  0
 17 21  1  0
 17 27  4  0
 18 19  2  0
 18 28  4  0
 19 20  2  0
 19 24  3  0
 19 25  4  0
 20 21  3  0
 20 23  3  0
 21 24  2  0
 21 26  1  0
 22 25  4  0
 23 26  4  0
M  END
$$$$

 Created by Python create_sdf_string function

 34 37  0  0  0  0  0  0  0  0999 V2000
    4.6496   -8.7827   14.7173 C   0  0  0  0  0  0  0  0  0  0  0  0
    8.9879   -7.7978   17.9799 C   0  0  0  0  0  0  0  0  0  0  0  0
    2.8406   -9.4496   15.5754 C   0  0  0  0  0  0  0  0  0  0  0  0
   10.1369   -3.7829   25.9799 C   0  0  0  0  0  0  0  0  0  0  0  0
   11.8035   -3.2983   22.8146 C   0  0  0  0  0  0  0  0  0  0  0  0
    9.4427   -2.6144   26.1333 C   0  0  0  0  0  0  0  0  0  0  0  0
    1.6509   -9.8123   15.4840 C   0  0  0  0  0  0  0  0  0  0  0  0
    8.1221   -8.4191   17.6213 C   0  0  0  0  0  0  0  0  0  0  0  0
    9.3819   -1.7200   25.0941 C   0  0  0  0  0  0  0  0  0  0  0  0
   10.7866   -3.1227   23.8491 C   0  0  0  0  0  0  0  0  0  0  0  0
    0.7677  -10.4109   16.4160 C   0  0  0  0  0  0  0  0  0  0  0  0
   11.4400   -3.4876   21.6763 O   0  0  0  0  0  0  0  0  0  0  0  0
   -1.0351  -10.8295   14.8259 C   0  0  0  0  0  0  0  0  0  0  0  0
   10.7832   -4.0749   24.8497 C   0  0  0  0  0  0  0  0  0  0  0  0
    3.7263   -9.2417   16.8196 C   0  0  0  0  0  0  0  0  0  0  0  0
   10.5927   -4.3348   19.5459 C   0  0  0  0  0  0  0  0  0  0  0  0
   -0.4421  -10.8978   16.0243 C   0  0  0  0  0  0  0  0  0  0  0  0
    5.6517   -7.9818   15.0943 C   0  0  0  0  0  0  0  0  0  0  0  0
   10.6711   -3.3431   17.4583 C   0  0  0  0  0  0  0  0  0  0  0  0
   10.9641   -3.2697   18.7876 C   0  0  0  0  0  0  0  0  0  0  0  0
   10.0356   -5.4226   19.0693 C   0  0  0  0  0  0  0  0  0  0  0  0
    7.2045   -7.5891   16.7884 N   0  0  0  0  0  0  0  0  0  0  0  0
    8.7828   -6.4397   17.3615 N   0  0  0  0  0  0  0  0  0  0  0  0
    1.0831   -9.7358   14.2443 C   0  0  0  0  0  0  0  0  0  0  0  0
    7.3715   -5.5216   15.5271 O   0  0  0  0  0  0  0  0  0  0  0  0
    7.7076   -6.4021   16.4820 C   0  0  0  0  0  0  0  0  0  0  0  0
   10.7428   -4.1210   21.2072 C   0  0  0  0  0  0  0  0  0  0  0  0
    9.6092   -5.4194   17.8117 C   0  0  0  0  0  0  0  0  0  0  0  0
    5.9248   -8.1182   16.3675 C   0  0  0  0  0  0  0  0  0  0  0  0
   10.0294   -1.9421   23.9045 C   0  0  0  0  0  0  0  0  0  0  0  0
    9.9618   -4.3868   16.9352 C   0  0  0  0  0  0  0  0  0  0  0  0
    5.0641   -8.7733   17.1427 N   0  0  0  0  0  0  0  0  0  0  0  0
    3.8106   -9.1332   15.0016 C   0  0  0  0  0  0  0  0  0  0  0  0
   -0.1360  -10.1847   13.9420 C   0  0  0  0  0  0  0  0  0  0  0  0
  1 18  4  0
  1 33  4  0
  2  8  4  0
  2 23  4  0
  3  7  1  0
  3 33  1  0
  4  6  4  0
  4 14  4  0
  5 10  1  0
  5 12  1  0
  6  9  4  0
  7 11  4  0
  7 24  4  0
  8 22  4  0
  9 30  4  0
 10 14  4  0
 10 30  4  0
 11 17  4  0
 12 27  1  0
 13 17  4  0
 13 34  4  0
 15 32  4  0
 16 20  4  0
 16 21  4  0
 16 27  1  0
 18 29  4  0
 19 20  4  0
 19 31  4  0
 21 28  4  0
 22 26  4  0
 22 29  1  0
 23 26  4  0
 23 28  1  0
 24 34  4  0
 25 26  2  0
 28 31  4  0
 29 32  4  0
M  END
$$$$

 Created by Python create_sdf_string function

 34 61  0  0  0  0  0  0  0  0999 V2000
    4.3981   -8.4930   14.7593 I   0  0  0  0  0  0  0  0  0  0  0  0
    9.2370   -7.8320   18.5893 C   0  0  0  0  0  0  0  0  0  0  0  0
   10.2387   -3.7950   26.2928 C   0  0  0  0  0  0  0  0  0  0  0  0
    9.2621   -2.8311   26.4411 C   0  0  0  0  0  0  0  0  0  0  0  0
    1.8020   -9.5033   15.4912 C   0  0  0  0  0  0  0  0  0  0  0  0
    8.2784   -8.3989   17.7969 C   0  0  0  0  0  0  0  0  0  0  0  0
    9.6026   -1.8576   25.0125 C   0  0  0  0  0  0  0  0  0  0  0  0
   10.7348   -3.3934   23.9495 C   0  0  0  0  0  0  0  0  0  0  0  0
    0.2177  -10.0124   16.4728 C   0  0  0  0  0  0  0  0  0  0  0  0
   11.5431   -3.0925   21.9617 O   0  0  0  0  0  0  0  0  0  0  0  0
   10.6596   -3.8424   24.8538 C   0  0  0  0  0  0  0  0  0  0  0  0
    3.9686   -9.0190   15.8998 C   0  0  0  0  0  0  0  0  0  0  0  0
    9.7946   -4.2376   19.2395 C   0  0  0  0  0  0  0  0  0  0  0  0
   -0.4681  -11.0853   16.1703 C   0  0  0  0  0  0  0  0  0  0  0  0
    5.2606   -8.1541   15.5191 C   0  0  0  0  0  0  0  0  0  0  0  0
   10.4796   -3.5380   17.1413 C   0  0  0  0  0  0  0  0  0  0  0  0
   10.7428   -3.7349   18.6123 C   0  0  0  0  0  0  0  0  0  0  0  0
    9.9522   -5.6566   19.4522 C   0  0  0  0  0  0  0  0  0  0  0  0
    7.8979   -6.0438   16.6192 P   0  0  0  0  0  0  0  0  0  0  0  0
    0.8901  -10.0733   14.2331 C   0  0  0  0  0  0  0  0  0  0  0  0
    7.3534   -5.2436   15.3318 O   0  0  0  0  0  0  0  0  0  0  0  0
    7.8116   -6.5636   16.6074 C   0  0  0  0  0  0  0  0  0  0  0  0
   10.7206   -3.1400   22.0114 C   0  0  0  0  0  0  0  0  0  0  0  0
    9.4645   -5.3890   17.8689 C   0  0  0  0  0  0  0  0  0  0  0  0
   10.0570   -1.9777   23.9586 C   0  0  0  0  0  0  0  0  0  0  0  0
   10.1512   -4.1668   16.9703 Br  0  0  0  0  0  0  0  0  0  0  0  0
    4.8999   -9.5401   17.3784 N   0  0  0  0  0  0  0  0  0  0  0  0
    3.7277  -10.0819   14.7189 C   0  0  0  0  0  0  0  0  0  0  0  0
    2.8592   -9.9365   16.3724 He  0  0  0  0  0  0  0  0  0  0  0  0
   11.8825   -3.0219   22.4091 He  0  0  0  0  0  0  0  0  0  0  0  0
   -1.4212  -11.2358   14.8959 He  0  0  0  0  0  0  0  0  0  0  0  0
    7.0975   -7.7730   15.8122 He  0  0  0  0  0  0  0  0  0  0  0  0
    5.6276   -8.4736   16.0458 He  0  0  0  0  0  0  0  0  0  0  0  0
   -0.0743  -10.4368   13.4910 He  0  0  0  0  0  0  0  0  0  0  0  0
  1  5  2  0
  1 12  1  0
  1 15  4  0
  1 23  2  0
  1 26  4  0
  2 14  1  0
  2 19  1  0
  2 26  2  0
  2 27  1  0
  3  7  4  0
  3 11  4  0
  3 12  3  0
  3 13  1  0
  3 15  3  0
  3 22  1  0
  3 28  4  0
  4  7  4  0
  4 11  2  0
  4 12  3  0
  5  6  2  0
  5  9  4  0
  5 20  4  0
  6 17  3  0
  6 19  1  0
  6 20  4  0
  7 17  4  0
  7 25  4  0
  7 26  3  0
  8 11  4  0
  9 12  1  0
  9 14  4  0
 10 19  2  0
 10 23  1  0
 10 28  2  0
 11 13  3  0
 11 16  2  0
 12 27  2  0
 13 17  4  0
 13 23  1  0
 13 24  1  0
 13 27  4  0
 14 21  4  0
 14 26  1  0
 15 20  2  0
 16 17  4  0
 16 23  1  0
 16 26  3  0
 17 19  2  0
 17 21  2  0
 17 24  1  0
 18 20  4  0
 18 22  4  0
 18 23  3  0
 18 28  3  0
 19 24  1  0
 21 25  4  0
 21 26  3  0
 21 27  1  0
 23 27  1  0
 23 28  1  0
 24 26  4  0
M  END
$$$$

 Created by Python create_sdf_string function

 34 38  0  0  0  0  0  0  0  0999 V2000
    4.4902   -8.3057   14.6636 C   0  0  0  0  0  0  0  0  0  0  0  0
    8.9531   -7.8041   17.9063 C   0  0  0  0  0  0  0  0  0  0  0  0
    2.7060   -9.4189   16.0430 O   0  0  0  0  0  0  0  0  0  0  0  0
   10.1468   -3.7914   26.0830 C   0  0  0  0  0  0  0  0  0  0  0  0
   11.6540   -3.3427   22.6754 C   0  0  0  0  0  0  0  0  0  0  0  0
    9.3838   -2.7059   26.2065 C   0  0  0  0  0  0  0  0  0  0  0  0
    1.3447   -9.9096   15.6217 C   0  0  0  0  0  0  0  0  0  0  0  0
    7.8649   -8.4423   17.6354 C   0  0  0  0  0  0  0  0  0  0  0  0
    9.2797   -1.7979   25.1878 C   0  0  0  0  0  0  0  0  0  0  0  0
   10.8218   -3.1069   23.9125 C   0  0  0  0  0  0  0  0  0  0  0  0
    0.4359  -10.3523   16.5135 C   0  0  0  0  0  0  0  0  0  0  0  0
   11.2471   -3.3315   21.5016 O   0  0  0  0  0  0  0  0  0  0  0  0
   -0.9980  -11.0525   14.8075 C   0  0  0  0  0  0  0  0  0  0  0  0
   10.8421   -4.0411   24.9710 C   0  0  0  0  0  0  0  0  0  0  0  0
    3.8686   -9.2973   16.5895 C   0  0  0  0  0  0  0  0  0  0  0  0
   10.4837   -4.1886   19.5212 C   0  0  0  0  0  0  0  0  0  0  0  0
   -0.7362  -10.8672   16.0813 C   0  0  0  0  0  0  0  0  0  0  0  0
    5.3701   -7.7740   15.0838 C   0  0  0  0  0  0  0  0  0  0  0  0
   10.6770   -3.3807   17.3032 C   0  0  0  0  0  0  0  0  0  0  0  0
   10.9063   -3.1910   18.6636 C   0  0  0  0  0  0  0  0  0  0  0  0
    9.8231   -5.3350   19.0457 C   0  0  0  0  0  0  0  0  0  0  0  0
    7.2396   -7.7779   16.4787 C   0  0  0  0  0  0  0  0  0  0  0  0
    8.7005   -6.4588   17.2779 N   0  0  0  0  0  0  0  0  0  0  0  0
    0.9923  -10.0044   14.2322 C   0  0  0  0  0  0  0  0  0  0  0  0
    7.3600   -5.4632   15.4823 O   0  0  0  0  0  0  0  0  0  0  0  0
    7.7683   -6.3933   16.2918 C   0  0  0  0  0  0  0  0  0  0  0  0
   10.7520   -3.8992   21.0524 C   0  0  0  0  0  0  0  0  0  0  0  0
    9.4991   -5.3844   17.7687 C   0  0  0  0  0  0  0  0  0  0  0  0
    5.9454   -8.2728   16.2844 C   0  0  0  0  0  0  0  0  0  0  0  0
    9.9337   -1.9771   24.0127 C   0  0  0  0  0  0  0  0  0  0  0  0
    9.9643   -4.4417   16.8794 C   0  0  0  0  0  0  0  0  0  0  0  0
    4.9577   -9.0844   17.0488 N   0  0  0  0  0  0  0  0  0  0  0  0
    3.6560   -9.2754   15.2362 C   0  0  0  0  0  0  0  0  0  0  0  0
   -0.1583  -10.6104   13.8367 C   0  0  0  0  0  0  0  0  0  0  0  0
  1 18  4  0
  1 33  4  0
  2  8  1  0
  2 23  1  0
  3  7  1  0
  3 33  1  0
  4  6  4  0
  4 14  4  0
  5 10  1  0
  5 12  1  0
  6  9  4  0
  7 11  4  0
  7 24  4  0
  8 22  1  0
  9 30  4  0
 10 14  4  0
 10 30  4  0
 11 17  4  0
 12 27  1  0
 13 17  4  0
 13 34  4  0
 15 32  4  0
 15 33  4  0
 16 20  4  0
 16 21  4  0
 16 27  1  0
 18 29  4  0
 19 20  4  0
 19 31  4  0
 21 28  4  0
 22 26  1  0
 22 29  1  0
 23 26  1  0
 23 28  1  0
 24 34  4  0
 25 26  2  0
 28 31  4  0
 29 32  4  0
M  END
$$$$

 Created by Python create_sdf_string function

 34 74  0  0  0  0  0  0  0  0999 V2000
    5.7714   -7.8100   14.5217 C   0  0  0  0  0  0  0  0  0  0  0  0
    2.4282   -9.1185   16.0385 O   0  0  0  0  0  0  0  0  0  0  0  0
   10.0344   -3.6885   26.2805 C   0  0  0  0  0  0  0  0  0  0  0  0
   11.9635   -3.3698   23.2385 C   0  0  0  0  0  0  0  0  0  0  0  0
    9.4727   -2.3481   26.5490 C   0  0  0  0  0  0  0  0  0  0  0  0
    1.3751  -10.0492   15.6573 C   0  0  0  0  0  0  0  0  0  0  0  0
    7.7323   -8.6244   17.2500 C   0  0  0  0  0  0  0  0  0  0  0  0
   10.5738   -3.3806   24.0963 C   0  0  0  0  0  0  0  0  0  0  0  0
    0.4237   -9.9706   16.2897 C   0  0  0  0  0  0  0  0  0  0  0  0
   -1.6707  -11.4107   14.4991 Cl  0  0  0  0  0  0  0  0  0  0  0  0
    3.2817   -9.6508   17.4727 N   0  0  0  0  0  0  0  0  0  0  0  0
   10.4573   -4.3223   20.0971 C   0  0  0  0  0  0  0  0  0  0  0  0
   -0.7981  -11.1176   16.1218 C   0  0  0  0  0  0  0  0  0  0  0  0
    4.6547   -7.9361   14.6773 N   0  0  0  0  0  0  0  0  0  0  0  0
   10.9505   -3.3271   17.0410 C   0  0  0  0  0  0  0  0  0  0  0  0
   11.1027   -3.3738   18.7520 C   0  0  0  0  0  0  0  0  0  0  0  0
    9.8920   -5.3385   18.9090 C   0  0  0  0  0  0  0  0  0  0  0  0
    6.7309   -7.2192   16.8019 O   0  0  0  0  0  0  0  0  0  0  0  0
    8.8856   -6.1349   17.9486 N   0  0  0  0  0  0  0  0  0  0  0  0
    0.8127  -10.0289   14.2147 C   0  0  0  0  0  0  0  0  0  0  0  0
    8.1638   -5.9002   15.3626 O   0  0  0  0  0  0  0  0  0  0  0  0
    7.7933   -5.9765   15.7654 C   0  0  0  0  0  0  0  0  0  0  0  0
   10.3128   -3.2893   20.6265 C   0  0  0  0  0  0  0  0  0  0  0  0
    9.5940   -5.6383   17.5864 C   0  0  0  0  0  0  0  0  0  0  0  0
    6.5456   -7.9013   15.7640 C   0  0  0  0  0  0  0  0  0  0  0  0
   10.0441   -1.7943   23.8713 C   0  0  0  0  0  0  0  0  0  0  0  0
    4.6806   -8.9959   17.2585 N   0  0  0  0  0  0  0  0  0  0  0  0
    4.2732   -8.8618   14.8670 C   0  0  0  0  0  0  0  0  0  0  0  0
   -0.1924  -10.5163   13.8053 C   0  0  0  0  0  0  0  0  0  0  0  0
    8.7973   -7.8551   17.6482 He  0  0  0  0  0  0  0  0  0  0  0  0
    9.1288   -1.7943   24.9857 He  0  0  0  0  0  0  0  0  0  0  0  0
   11.2647   -3.0868   21.6582 He  0  0  0  0  0  0  0  0  0  0  0  0
   10.9849   -4.0255   24.9403 He  0  0  0  0  0  0  0  0  0  0  0  0
    9.7933   -4.5157   16.7740 He  0  0  0  0  0  0  0  0  0  0  0  0
  1  5  3  0
  1  8  1  0
  1 11  1  0
  1 14  4  0
  1 18  4  0
  1 26  3  0
  1 28  4  0
  2  3  3  0
  2  6  1  0
  2  8  2  0
  2 13  4  0
  2 18  2  0
  2 19  4  0
  2 28  1  0
  3  5  4  0
  3 14  2  0
  4  6  4  0
  4  8  1  0
  4 12  2  0
  4 25  4  0
  5  8  3  0
  6  9  4  0
  6 11  2  0
  6 15  3  0
  6 20  4  0
  6 21  1  0
  6 27  4  0
  7 18  1  0
  7 19  4  0
  7 23  2  0
  8 26  4  0
  8 29  3  0
  9 13  4  0
  9 19  1  0
  9 27  4  0
  9 28  2  0
  9 29  3  0
 10 11  4  0
 10 13  4  0
 10 17  2  0
 10 29  4  0
 11 12  4  0
 11 13  3  0
 11 17  2  0
 11 18  3  0
 11 27  4  0
 12 16  4  0
 12 19  3  0
 12 23  1  0
 12 26  1  0
 13 14  3  0
 13 19  2  0
 13 22  2  0
 14 15  3  0
 14 25  3  0
 14 29  1  0
 15 16  4  0
 15 21  2  0
 17 21  1  0
 17 23  1  0
 17 24  4  0
 18 22  1  0
 18 25  3  0
 18 28  1  0
 19 22  1  0
 19 24  1  0
 19 26  2  0
 19 27  1  0
 20 21  2  0
 22 27  1  0
 23 27  4  0
 24 25  2  0
 25 27  1  0
 27 28  2  0
M  END
$$$$

 Created by Python create_sdf_string function

 34 38  0  0  0  0  0  0  0  0999 V2000
    5.3185   -7.7312   14.7587 C   0  0  0  0  0  0  0  0  0  0  0  0
    8.8631   -7.7253   17.8519 C   0  0  0  0  0  0  0  0  0  0  0  0
    2.4958   -9.1735   15.7043 N   0  0  0  0  0  0  0  0  0  0  0  0
   10.0807   -3.6169   26.2177 C   0  0  0  0  0  0  0  0  0  0  0  0
   11.7107   -3.4365   22.9578 C   0  0  0  0  0  0  0  0  0  0  0  0
    9.2835   -2.5090   26.2349 C   0  0  0  0  0  0  0  0  0  0  0  0
    1.3025   -9.8116   15.4205 C   0  0  0  0  0  0  0  0  0  0  0  0
    7.8125   -8.4749   17.2684 C   0  0  0  0  0  0  0  0  0  0  0  0
    9.2376   -1.6824   25.1246 C   0  0  0  0  0  0  0  0  0  0  0  0
   10.8001   -3.1232   24.0695 C   0  0  0  0  0  0  0  0  0  0  0  0
    0.4695  -10.3178   16.4549 C   0  0  0  0  0  0  0  0  0  0  0  0
   11.3188   -3.1375   21.6163 C   0  0  0  0  0  0  0  0  0  0  0  0
   -1.0130  -11.1126   14.8410 C   0  0  0  0  0  0  0  0  0  0  0  0
   10.8241   -3.9714   25.1303 C   0  0  0  0  0  0  0  0  0  0  0  0
    3.8036   -9.2612   17.0070 N   0  0  0  0  0  0  0  0  0  0  0  0
   10.5177   -4.1595   19.5044 C   0  0  0  0  0  0  0  0  0  0  0  0
   -0.6800  -10.9204   16.1188 C   0  0  0  0  0  0  0  0  0  0  0  0
    4.3368   -8.2783   14.7207 N   0  0  0  0  0  0  0  0  0  0  0  0
   10.8613   -3.3847   17.3167 C   0  0  0  0  0  0  0  0  0  0  0  0
   11.0172   -3.2310   18.6462 C   0  0  0  0  0  0  0  0  0  0  0  0
    9.9207   -5.2348   19.0632 C   0  0  0  0  0  0  0  0  0  0  0  0
    6.9746   -7.5111   16.5101 C   0  0  0  0  0  0  0  0  0  0  0  0
    8.7054   -6.4169   17.2711 N   0  0  0  0  0  0  0  0  0  0  0  0
    0.9118   -9.9511   14.1147 C   0  0  0  0  0  0  0  0  0  0  0  0
    7.6262   -5.4921   15.3449 O   0  0  0  0  0  0  0  0  0  0  0  0
    7.8175   -6.2977   16.2558 C   0  0  0  0  0  0  0  0  0  0  0  0
   10.6127   -3.9276   20.9763 C   0  0  0  0  0  0  0  0  0  0  0  0
    9.5734   -5.3902   17.7678 C   0  0  0  0  0  0  0  0  0  0  0  0
    5.7963   -7.9738   16.2248 C   0  0  0  0  0  0  0  0  0  0  0  0
    9.9300   -1.9957   24.0139 C   0  0  0  0  0  0  0  0  0  0  0  0
   10.0659   -4.4523   16.8654 C   0  0  0  0  0  0  0  0  0  0  0  0
    4.9759   -8.7817   17.0945 N   0  0  0  0  0  0  0  0  0  0  0  0
    3.4990   -8.9036   15.7477 C   0  0  0  0  0  0  0  0  0  0  0  0
   -0.2489  -10.6406   13.8135 C   0  0  0  0  0  0  0  0  0  0  0  0
  1 18  4  0
  1 29  4  0
  2  8  1  0
  2 23  1  0
  3  7  1  0
  3 33  1  0
  4  6  4  0
  4 14  4  0
  5 10  1  0
  5 12  1  0
  6  9  4  0
  7 11  4  0
  7 24  4  0
  8 22  1  0
  9 30  4  0
 10 14  4  0
 10 30  4  0
 11 17  4  0
 12 27  1  0
 13 17  4  0
 13 34  4  0
 15 32  4  0
 15 33  4  0
 16 20  4  0
 16 21  4  0
 16 27  1  0
 18 33  4  0
 19 20  4  0
 19 31  4  0
 21 28  4  0
 22 26  1  0
 22 29  1  0
 23 26  1  0
 23 28  1  0
 24 34  4  0
 25 26  2  0
 28 31  4  0
 29 32  4  0
M  END
$$$$

 Created by Python create_sdf_string function

 34 64  0  0  0  0  0  0  0  0999 V2000
    1.6669   -9.2319   15.3526 N   0  0  0  0  0  0  0  0  0  0  0  0
   10.0005   -3.9288   26.3639 C   0  0  0  0  0  0  0  0  0  0  0  0
    1.1442   -9.9466   15.2111 C   0  0  0  0  0  0  0  0  0  0  0  0
    7.8014   -8.7572   17.5217 C   0  0  0  0  0  0  0  0  0  0  0  0
    9.4096   -2.0476   25.1420 C   0  0  0  0  0  0  0  0  0  0  0  0
   10.7957   -3.0891   24.3687 C   0  0  0  0  0  0  0  0  0  0  0  0
    0.3889  -10.1111   16.8700 C   0  0  0  0  0  0  0  0  0  0  0  0
   11.5671   -2.6886   21.6740 C   0  0  0  0  0  0  0  0  0  0  0  0
   -0.7822  -10.8126   14.7341 C   0  0  0  0  0  0  0  0  0  0  0  0
   10.7600   -4.0651   25.0595 C   0  0  0  0  0  0  0  0  0  0  0  0
    3.8368   -9.0420   17.2152 N   0  0  0  0  0  0  0  0  0  0  0  0
   -0.8472  -10.8263   15.8252 C   0  0  0  0  0  0  0  0  0  0  0  0
   10.7208   -3.6336   17.4171 C   0  0  0  0  0  0  0  0  0  0  0  0
   11.0812   -3.1318   18.6798 C   0  0  0  0  0  0  0  0  0  0  0  0
   10.0001   -5.0232   19.0041 F   0  0  0  0  0  0  0  0  0  0  0  0
    6.5050   -8.3449   17.0705 C   0  0  0  0  0  0  0  0  0  0  0  0
    0.9782   -9.7322   14.4790 C   0  0  0  0  0  0  0  0  0  0  0  0
    7.3566   -5.7756   15.5810 O   0  0  0  0  0  0  0  0  0  0  0  0
    7.8980   -6.1073   16.2123 Cl  0  0  0  0  0  0  0  0  0  0  0  0
   10.5467   -3.9087   20.7042 C   0  0  0  0  0  0  0  0  0  0  0  0
    9.6092   -5.5483   17.5937 C   0  0  0  0  0  0  0  0  0  0  0  0
    5.6033   -7.4582   16.1009 P   0  0  0  0  0  0  0  0  0  0  0  0
    9.9676   -2.1488   24.0007 C   0  0  0  0  0  0  0  0  0  0  0  0
   10.2059   -4.3206   16.7269 C   0  0  0  0  0  0  0  0  0  0  0  0
    4.5111   -8.7532   17.4597 N   0  0  0  0  0  0  0  0  0  0  0  0
    3.0044   -9.0953   15.8085 C   0  0  0  0  0  0  0  0  0  0  0  0
   -0.1192  -10.5507   14.0844 C   0  0  0  0  0  0  0  0  0  0  0  0
    5.5206   -6.8867   14.9421 He  0  0  0  0  0  0  0  0  0  0  0  0
    8.9781   -7.3555   18.2291 He  0  0  0  0  0  0  0  0  0  0  0  0
   11.8720   -3.2607   23.2098 He  0  0  0  0  0  0  0  0  0  0  0  0
    8.9380   -2.3117   25.9262 He  0  0  0  0  0  0  0  0  0  0  0  0
   10.1450   -3.9446   19.8158 He  0  0  0  0  0  0  0  0  0  0  0  0
    4.0416   -8.4499   14.6914 He  0  0  0  0  0  0  0  0  0  0  0  0
    8.6331   -5.8025   17.6923 He  0  0  0  0  0  0  0  0  0  0  0  0
  1  2  2  0
  1 11  2  0
  1 25  4  0
  1 26  1  0
  2 10  4  0
  2 11  4  0
  2 14  1  0
  2 23  3  0
  2 27  1  0
  3  7  4  0
  3 13  2  0
  3 17  4  0
  3 18  2  0
  4 16  1  0
  4 22  1  0
  4 26  1  0
  5 20  1  0
  5 23  4  0
  5 26  4  0
  6  9  3  0
  6 10  4  0
  6 23  4  0
  6 24  3  0
  7  8  4  0
  7  9  1  0
  7 12  4  0
  7 14  3  0
  7 22  3  0
  8 16  4  0
  8 20  1  0
  8 24  1  0
  8 25  2  0
  8 26  3  0
  8 27  1  0
  9 10  1  0
  9 17  4  0
  9 21  3  0
  9 27  4  0
 10 20  1  0
 10 25  3  0
 11 25  4  0
 11 26  4  0
 12 18  1  0
 12 20  4  0
 12 26  1  0
 13 14  4  0
 13 24  4  0
 13 26  1  0
 14 20  1  0
 14 26  3  0
 16 17  4  0
 16 19  3  0
 16 22  4  0
 16 23  4  0
 17 25  3  0
 18 19  2  0
 18 20  2  0
 18 23  2  0
 19 22  3  0
 20 23  3  0
 20 26  2  0
 21 24  4  0
 22 25  4  0
 24 27  2  0
M  END
$$$$

 Created by Python create_sdf_string function

 34 38  0  0  0  0  0  0  0  0999 V2000
    5.1664   -7.6100   15.3288 C   0  0  0  0  0  0  0  0  0  0  0  0
    8.8977   -7.5693   18.0250 C   0  0  0  0  0  0  0  0  0  0  0  0
    1.9248   -8.7721   15.7248 N   0  0  0  0  0  0  0  0  0  0  0  0
    9.9117   -3.7595   26.1325 C   0  0  0  0  0  0  0  0  0  0  0  0
   11.6928   -3.4302   22.9720 C   0  0  0  0  0  0  0  0  0  0  0  0
    9.0735   -2.6896   26.1229 C   0  0  0  0  0  0  0  0  0  0  0  0
    1.0693   -9.6596   15.4307 C   0  0  0  0  0  0  0  0  0  0  0  0
    7.8331   -8.3677   17.5511 C   0  0  0  0  0  0  0  0  0  0  0  0
    9.1443   -1.7734   25.1103 C   0  0  0  0  0  0  0  0  0  0  0  0
   10.8132   -3.1070   24.0566 C   0  0  0  0  0  0  0  0  0  0  0  0
    0.3312  -10.2471   16.5065 C   0  0  0  0  0  0  0  0  0  0  0  0
   11.4212   -3.0461   21.6217 C   0  0  0  0  0  0  0  0  0  0  0  0
   -1.0969  -11.1461   14.9175 C   0  0  0  0  0  0  0  0  0  0  0  0
   10.7848   -3.9946   25.0904 C   0  0  0  0  0  0  0  0  0  0  0  0
    3.7152   -8.9430   17.0711 N   0  0  0  0  0  0  0  0  0  0  0  0
   10.5468   -4.0605   19.5377 C   0  0  0  0  0  0  0  0  0  0  0  0
   -0.8368  -10.9806   16.1215 C   0  0  0  0  0  0  0  0  0  0  0  0
    3.9776   -8.0422   14.8978 C   0  0  0  0  0  0  0  0  0  0  0  0
   10.8656   -3.3754   17.2806 C   0  0  0  0  0  0  0  0  0  0  0  0
   11.0407   -3.1138   18.6243 C   0  0  0  0  0  0  0  0  0  0  0  0
    9.9043   -5.0875   19.1306 C   0  0  0  0  0  0  0  0  0  0  0  0
    6.9882   -7.5672   16.8094 C   0  0  0  0  0  0  0  0  0  0  0  0
    8.7978   -6.3591   17.3210 N   0  0  0  0  0  0  0  0  0  0  0  0
    0.6991   -9.9635   14.1889 C   0  0  0  0  0  0  0  0  0  0  0  0
    7.3394   -5.4951   15.5324 O   0  0  0  0  0  0  0  0  0  0  0  0
    7.7011   -6.3445   16.4545 C   0  0  0  0  0  0  0  0  0  0  0  0
   10.6771   -3.8687   20.9435 C   0  0  0  0  0  0  0  0  0  0  0  0
    9.6258   -5.2755   17.8087 C   0  0  0  0  0  0  0  0  0  0  0  0
    5.6579   -7.9317   16.5426 C   0  0  0  0  0  0  0  0  0  0  0  0
    9.9494   -1.9679   24.0101 C   0  0  0  0  0  0  0  0  0  0  0  0
   10.1335   -4.4203   16.8579 C   0  0  0  0  0  0  0  0  0  0  0  0
    4.9193   -8.5295   17.4514 N   0  0  0  0  0  0  0  0  0  0  0  0
    3.1944   -8.6625   15.8510 C   0  0  0  0  0  0  0  0  0  0  0  0
   -0.4501  -10.6736   13.8556 C   0  0  0  0  0  0  0  0  0  0  0  0
  1 18  4  0
  1 29  4  0
  2  8  1  0
  2 23  1  0
  3  7  1  0
  3 33  1  0
  4  6  4  0
  4 14  4  0
  5 10  1  0
  5 12  1  0
  6  9  4  0
  7 11  4  0
  7 24  4  0
  8 22  1  0
  9 30  4  0
 10 14  4  0
 10 30  4  0
 11 17  4  0
 12 27  1  0
 13 17  4  0
 13 34  4  0
 15 32  4  0
 15 33  4  0
 16 20  4  0
 16 21  4  0
 16 27  1  0
 18 33  4  0
 19 20  4  0
 19 31  4  0
 21 28  4  0
 22 26  1  0
 22 29  1  0
 23 26  1  0
 23 28  1  0
 24 34  4  0
 25 26  2  0
 28 31  4  0
 29 32  4  0
M  END
$$$$

 Created by Python create_sdf_string function

 34 68  0  0  0  0  0  0  0  0999 V2000
    5.8823   -6.9025   14.8828 C   0  0  0  0  0  0  0  0  0  0  0  0
    8.8624   -7.5081   18.0585 C   0  0  0  0  0  0  0  0  0  0  0  0
    2.0569   -8.9380   15.6408 N   0  0  0  0  0  0  0  0  0  0  0  0
    9.9560   -4.2212   26.1371 C   0  0  0  0  0  0  0  0  0  0  0  0
   10.9823   -3.8700   22.8953 C   0  0  0  0  0  0  0  0  0  0  0  0
    9.4226   -2.7239   26.2052 C   0  0  0  0  0  0  0  0  0  0  0  0
    1.0114   -9.3544   15.5229 C   0  0  0  0  0  0  0  0  0  0  0  0
    7.9736   -8.3514   17.3373 C   0  0  0  0  0  0  0  0  0  0  0  0
    9.3225   -1.8297   24.7301 C   0  0  0  0  0  0  0  0  0  0  0  0
   10.8610   -3.0050   24.0585 C   0  0  0  0  0  0  0  0  0  0  0  0
    0.4689   -9.9731   16.4588 C   0  0  0  0  0  0  0  0  0  0  0  0
   11.2529   -2.9301   21.8587 N   0  0  0  0  0  0  0  0  0  0  0  0
   -1.2604  -11.5856   14.4777 C   0  0  0  0  0  0  0  0  0  0  0  0
   10.9599   -4.0392   25.0925 C   0  0  0  0  0  0  0  0  0  0  0  0
    3.0976   -9.0619   17.4370 N   0  0  0  0  0  0  0  0  0  0  0  0
   10.5123   -4.2683   19.6038 C   0  0  0  0  0  0  0  0  0  0  0  0
   -1.0924  -11.1104   16.0543 C   0  0  0  0  0  0  0  0  0  0  0  0
    3.6880   -8.4274   15.0380 C   0  0  0  0  0  0  0  0  0  0  0  0
   11.0314   -3.2280   17.5807 C   0  0  0  0  0  0  0  0  0  0  0  0
   11.2586   -2.9215   18.3240 C   0  0  0  0  0  0  0  0  0  0  0  0
    7.8868   -6.0094   15.7205 Se  0  0  0  0  0  0  0  0  0  0  0  0
    7.5971   -6.3482   16.2439 C   0  0  0  0  0  0  0  0  0  0  0  0
   10.5223   -4.3703   21.0230 C   0  0  0  0  0  0  0  0  0  0  0  0
    9.7414   -5.0059   18.0043 C   0  0  0  0  0  0  0  0  0  0  0  0
    4.9689   -8.4558   17.1095 C   0  0  0  0  0  0  0  0  0  0  0  0
   10.1051   -1.9099   23.9912 C   0  0  0  0  0  0  0  0  0  0  0  0
   10.2140   -4.5184   17.0298 C   0  0  0  0  0  0  0  0  0  0  0  0
   -0.1812  -10.9435   13.8568 C   0  0  0  0  0  0  0  0  0  0  0  0
   10.0994   -4.8210   18.8788 He  0  0  0  0  0  0  0  0  0  0  0  0
    6.8331   -8.0694   17.0361 He  0  0  0  0  0  0  0  0  0  0  0  0
    8.7050   -5.5757   17.5324 He  0  0  0  0  0  0  0  0  0  0  0  0
    1.1211  -10.0255   14.0721 He  0  0  0  0  0  0  0  0  0  0  0  0
    4.2867   -8.8295   18.1713 He  0  0  0  0  0  0  0  0  0  0  0  0
    4.0727   -8.4710   15.9695 He  0  0  0  0  0  0  0  0  0  0  0  0
  1  6  1  0
  1  9  2  0
  1 16  2  0
  1 17  1  0
  1 20  1  0
  1 25  4  0
  2  4  1  0
  2  5  3  0
  2  6  1  0
  2  8  1  0
  2 24  4  0
  2 25  2  0
  3  7  1  0
  3  8  2  0
  3 16  4  0
  3 18  2  0
  3 19  3  0
  3 26  1  0
  3 27  3  0
  4  6  4  0
  4 13  1  0
  4 14  4  0
  4 16  4  0
  5  6  3  0
  5 10  1  0
  5 22  1  0
  6  8  3  0
  6  9  1  0
  6 23  4  0
  6 25  2  0
  7  9  1  0
  7 14  2  0
  7 25  3  0
  8 12  3  0
  8 21  1  0
  9 11  3  0
  9 14  3  0
  9 16  1  0
  9 25  4  0
  9 26  4  0
 10 14  4  0
 10 16  4  0
 10 18  1  0
 11 17  4  0
 11 23  2  0
 12 17  1  0
 12 19  1  0
 12 21  4  0
 12 27  4  0
 13 21  1  0
 13 28  4  0
 14 21  2  0
 15 21  1  0
 15 24  2  0
 16 20  2  0
 16 24  1  0
 16 26  1  0
 17 21  4  0
 18 23  1  0
 18 25  2  0
 19 20  4  0
 19 23  3  0
 19 27  4  0
 20 22  1  0
 21 27  4  0
 24 27  4  0
 25 27  4  0
 26 27  3  0
M  END
$$$$

 Created by Python create_sdf_string function

 34 37  0  0  0  0  0  0  0  0999 V2000
    5.2958   -7.5048   15.4108 C   0  0  0  0  0  0  0  0  0  0  0  0
    8.8960   -7.6377   17.9135 C   0  0  0  0  0  0  0  0  0  0  0  0
    2.2477   -8.9242   15.8029 N   0  0  0  0  0  0  0  0  0  0  0  0
   10.0290   -3.8520   26.1813 C   0  0  0  0  0  0  0  0  0  0  0  0
   11.5368   -3.6179   22.9211 C   0  0  0  0  0  0  0  0  0  0  0  0
    9.2339   -2.7425   26.2294 C   0  0  0  0  0  0  0  0  0  0  0  0
    1.0825   -9.6901   15.4065 C   0  0  0  0  0  0  0  0  0  0  0  0
    7.7432   -8.4274   17.4798 C   0  0  0  0  0  0  0  0  0  0  0  0
    9.2634   -1.7881   25.2646 C   0  0  0  0  0  0  0  0  0  0  0  0
   10.7167   -3.2368   24.0733 C   0  0  0  0  0  0  0  0  0  0  0  0
    0.2822  -10.1656   16.3933 C   0  0  0  0  0  0  0  0  0  0  0  0
   11.1383   -3.2599   21.6645 N   0  0  0  0  0  0  0  0  0  0  0  0
   -1.0008  -11.3560   14.7894 C   0  0  0  0  0  0  0  0  0  0  0  0
   10.7719   -4.1462   25.1112 C   0  0  0  0  0  0  0  0  0  0  0  0
    3.3196   -9.1277   17.1702 N   0  0  0  0  0  0  0  0  0  0  0  0
   10.5968   -4.1568   19.4057 C   0  0  0  0  0  0  0  0  0  0  0  0
   -0.7965  -10.9868   16.0522 C   0  0  0  0  0  0  0  0  0  0  0  0
    3.6163   -8.1215   15.1735 C   0  0  0  0  0  0  0  0  0  0  0  0
   10.9529   -3.3400   17.3362 C   0  0  0  0  0  0  0  0  0  0  0  0
   11.1270   -3.1454   18.6464 C   0  0  0  0  0  0  0  0  0  0  0  0
    9.8299   -5.1349   19.0491 C   0  0  0  0  0  0  0  0  0  0  0  0
    6.8764   -7.6054   16.9845 N   0  0  0  0  0  0  0  0  0  0  0  0
    8.6677   -6.2766   17.2975 N   0  0  0  0  0  0  0  0  0  0  0  0
    0.8734  -10.0098   14.1374 C   0  0  0  0  0  0  0  0  0  0  0  0
    7.5479   -5.4760   15.5444 O   0  0  0  0  0  0  0  0  0  0  0  0
    7.6243   -6.3624   16.4549 C   0  0  0  0  0  0  0  0  0  0  0  0
   10.9540   -4.2009   21.0031 C   0  0  0  0  0  0  0  0  0  0  0  0
    9.6011   -5.2307   17.7613 C   0  0  0  0  0  0  0  0  0  0  0  0
    5.5903   -8.0406   16.6893 C   0  0  0  0  0  0  0  0  0  0  0  0
    9.9697   -2.0115   24.1145 C   0  0  0  0  0  0  0  0  0  0  0  0
   10.1166   -4.4079   16.8825 C   0  0  0  0  0  0  0  0  0  0  0  0
    4.7288   -8.7310   17.4415 C   0  0  0  0  0  0  0  0  0  0  0  0
    3.4833   -8.3972   15.6343 C   0  0  0  0  0  0  0  0  0  0  0  0
   -0.1966  -10.8999   13.7750 C   0  0  0  0  0  0  0  0  0  0  0  0
  1 18  4  0
  1 29  4  0
  2  8  1  0
  2 23  1  0
  3  7  1  0
  3 15  4  0
  4  6  4  0
  4 14  4  0
  5 10  1  0
  5 12  1  0
  6  9  4  0
  7 11  4  0
  7 24  4  0
  8 22  1  0
  9 30  4  0
 10 14  4  0
 10 30  4  0
 11 17  4  0
 12 27  1  0
 13 17  4  0
 13 34  4  0
 15 32  4  0
 16 20  4  0
 16 21  4  0
 16 27  1  0
 18 33  4  0
 19 20  4  0
 19 31  4  0
 21 28  4  0
 22 26  1  0
 22 29  1  0
 23 26  1  0
 23 28  1  0
 24 34  4  0
 25 26  2  0
 28 31  4  0
 29 32  4  0
M  END
$$$$

 Created by Python create_sdf_string function

 34 90  0  0  0  0  0  0  0  0999 V2000
    8.6494   -7.9027   17.3600 C   0  0  0  0  0  0  0  0  0  0  0  0
    2.5405   -8.9731   15.2963 N   0  0  0  0  0  0  0  0  0  0  0  0
   10.1532   -4.4105   26.0184 C   0  0  0  0  0  0  0  0  0  0  0  0
   11.4902   -3.0861   22.4375 C   0  0  0  0  0  0  0  0  0  0  0  0
    9.4616   -2.3796   26.0936 C   0  0  0  0  0  0  0  0  0  0  0  0
    1.1167   -9.5488   15.3732 C   0  0  0  0  0  0  0  0  0  0  0  0
    7.7104   -8.3576   17.3816 C   0  0  0  0  0  0  0  0  0  0  0  0
    8.9875   -1.6311   25.6573 C   0  0  0  0  0  0  0  0  0  0  0  0
   10.7720   -3.2893   24.2226 C   0  0  0  0  0  0  0  0  0  0  0  0
    0.4232  -10.4154   16.2823 C   0  0  0  0  0  0  0  0  0  0  0  0
   10.9540   -3.2647   21.5194 N   0  0  0  0  0  0  0  0  0  0  0  0
   10.5726   -4.1924   25.0358 C   0  0  0  0  0  0  0  0  0  0  0  0
    3.0708   -9.3564   17.1068 N   0  0  0  0  0  0  0  0  0  0  0  0
   10.4449   -4.7938   19.8472 C   0  0  0  0  0  0  0  0  0  0  0  0
   -0.7520  -11.2626   16.0360 C   0  0  0  0  0  0  0  0  0  0  0  0
    3.5345   -8.2934   15.7682 N   0  0  0  0  0  0  0  0  0  0  0  0
   10.8842   -3.1132   17.4632 C   0  0  0  0  0  0  0  0  0  0  0  0
   11.0669   -3.0801   18.6925 C   0  0  0  0  0  0  0  0  0  0  0  0
    9.5100   -4.9471   18.9681 C   0  0  0  0  0  0  0  0  0  0  0  0
    6.5148   -7.2488   17.0444 N   0  0  0  0  0  0  0  0  0  0  0  0
    8.3333   -5.8611   17.0240 N   0  0  0  0  0  0  0  0  0  0  0  0
    0.8170  -10.1789   14.0006 C   0  0  0  0  0  0  0  0  0  0  0  0
    7.8610   -5.1447   15.5414 O   0  0  0  0  0  0  0  0  0  0  0  0
    7.7149   -6.0592   16.6296 C   0  0  0  0  0  0  0  0  0  0  0  0
   10.6295   -4.3259   20.4110 C   0  0  0  0  0  0  0  0  0  0  0  0
    9.8246   -4.9474   17.8970 C   0  0  0  0  0  0  0  0  0  0  0  0
    5.9529   -7.7954   17.3636 C   0  0  0  0  0  0  0  0  0  0  0  0
   10.0194   -4.1753   17.0224 C   0  0  0  0  0  0  0  0  0  0  0  0
    4.4170   -9.3469   17.8082 C   0  0  0  0  0  0  0  0  0  0  0  0
    2.4373   -8.3310   15.6629 C   0  0  0  0  0  0  0  0  0  0  0  0
   -0.1979  -10.5284   13.4123 C   0  0  0  0  0  0  0  0  0  0  0  0
    4.8682   -8.3709   15.9292 He  0  0  0  0  0  0  0  0  0  0  0  0
   -0.8763  -11.1693   14.5327 He  0  0  0  0  0  0  0  0  0  0  0  0
   10.1637   -2.0287   24.0649 He  0  0  0  0  0  0  0  0  0  0  0  0
  1  2  1  0
  1  4  1  0
  1 11  1  0
  1 16  1  0
  1 19  2  0
  1 20  2  0
  1 21  1  0
  1 28  4  0
  1 29  3  0
  2  6  1  0
  2  8  4  0
  2 13  4  0
  2 17  1  0
  2 19  4  0
  2 25  2  0
  2 30  3  0
  3  5  4  0
  3  6  1  0
  3 12  4  0
  3 21  4  0
  3 29  2  0
  4  9  1  0
  4 11  4  0
  4 19  1  0
  4 23  4  0
  4 26  1  0
  4 28  1  0
  5  8  1  0
  5 13  2  0
  5 25  1  0
  6 10  4  0
  6 11  1  0
  6 16  4  0
  6 17  1  0
  6 22  4  0
  7  8  1  0
  7 11  2  0
  7 14  4  0
  7 20  1  0
  7 28  3  0
  7 30  3  0
  8 25  1  0
  8 29  2  0
  8 31  1  0
  9 12  3  0
  9 27  4  0
  9 29  4  0
 10 12  2  0
 10 13  3  0
 10 15  4  0
 11 25  1  0
 11 29  3  0
 12 25  2  0
 13 16  3  0
 13 29  4  0
 14 15  4  0
 14 18  2  0
 14 19  4  0
 14 20  1  0
 14 25  1  0
 14 31  2  0
 15 18  4  0
 15 29  4  0
 16 18  4  0
 16 22  4  0
 16 27  4  0
 17 18  4  0
 17 19  2  0
 17 21  2  0
 17 25  1  0
 17 27  2  0
 17 28  4  0
 18 20  2  0
 18 30  1  0
 19 20  2  0
 19 21  4  0
 19 26  4  0
 20 24  4  0
 20 27  1  0
 21 24  1  0
 21 26  1  0
 22 23  2  0
 22 31  4  0
 23 24  2  0
 23 27  3  0
 25 30  2  0
 26 28  4  0
 27 29  4  0
 29 30  1  0
 30 31  2  0
M  END
$$$$

 Created by Python create_sdf_string function

 34 37  0  0  0  0  0  0  0  0999 V2000
    4.9047   -7.6181   15.9133 C   0  0  0  0  0  0  0  0  0  0  0  0
    8.9807   -7.7246   17.5740 C   0  0  0  0  0  0  0  0  0  0  0  0
    2.0877   -8.9957   15.5701 N   0  0  0  0  0  0  0  0  0  0  0  0
   10.0076   -3.8964   26.1416 C   0  0  0  0  0  0  0  0  0  0  0  0
   11.5972   -3.3166   22.8776 C   0  0  0  0  0  0  0  0  0  0  0  0
    9.3199   -2.7705   26.3165 C   0  0  0  0  0  0  0  0  0  0  0  0
    1.1045   -9.7455   15.2975 C   0  0  0  0  0  0  0  0  0  0  0  0
    7.8568   -8.3737   17.3861 C   0  0  0  0  0  0  0  0  0  0  0  0
    9.2880   -1.7640   25.3955 C   0  0  0  0  0  0  0  0  0  0  0  0
   10.6522   -3.1235   24.0516 C   0  0  0  0  0  0  0  0  0  0  0  0
    0.3434  -10.4658   16.2784 C   0  0  0  0  0  0  0  0  0  0  0  0
   10.8898   -3.2510   21.5624 N   0  0  0  0  0  0  0  0  0  0  0  0
   -0.9867  -11.3348   14.5843 C   0  0  0  0  0  0  0  0  0  0  0  0
   10.7032   -4.1300   24.9855 C   0  0  0  0  0  0  0  0  0  0  0  0
    3.5691   -9.3589   17.3376 N   0  0  0  0  0  0  0  0  0  0  0  0
   10.5572   -4.2863   19.5113 C   0  0  0  0  0  0  0  0  0  0  0  0
   -0.7096  -11.2275   15.8808 C   0  0  0  0  0  0  0  0  0  0  0  0
    3.7085   -8.1341   15.8482 N   0  0  0  0  0  0  0  0  0  0  0  0
   10.8089   -3.2842   17.3814 C   0  0  0  0  0  0  0  0  0  0  0  0
   10.9905   -3.2252   18.7065 C   0  0  0  0  0  0  0  0  0  0  0  0
    9.8073   -5.2534   19.0641 C   0  0  0  0  0  0  0  0  0  0  0  0
    6.7292   -7.4188   17.0505 N   0  0  0  0  0  0  0  0  0  0  0  0
    8.7065   -6.2770   17.1773 N   0  0  0  0  0  0  0  0  0  0  0  0
    0.7509   -9.8844   14.0086 C   0  0  0  0  0  0  0  0  0  0  0  0
    7.3909   -5.2710   15.5360 O   0  0  0  0  0  0  0  0  0  0  0  0
    7.5707   -6.1668   16.5108 C   0  0  0  0  0  0  0  0  0  0  0  0
   10.9827   -4.3522   20.9462 C   0  0  0  0  0  0  0  0  0  0  0  0
    9.4764   -5.2701   17.6932 C   0  0  0  0  0  0  0  0  0  0  0  0
    5.5460   -7.9635   16.9412 C   0  0  0  0  0  0  0  0  0  0  0  0
    9.8938   -1.9359   24.1734 C   0  0  0  0  0  0  0  0  0  0  0  0
    9.9604   -4.2863   16.9758 C   0  0  0  0  0  0  0  0  0  0  0  0
    4.7623   -8.9610   17.6172 C   0  0  0  0  0  0  0  0  0  0  0  0
    2.6538   -8.3502   15.5829 C   0  0  0  0  0  0  0  0  0  0  0  0
   -0.2775  -10.7135   13.6303 C   0  0  0  0  0  0  0  0  0  0  0  0
  1 18  4  0
  1 29  4  0
  2  8  1  0
  2 23  1  0
  3  7  1  0
  3 33  1  0
  4  6  4  0
  4 14  4  0
  5 10  1  0
  5 12  1  0
  6  9  4  0
  7 11  4  0
  7 24  4  0
  8 22  1  0
  9 30  4  0
 10 14  4  0
 10 30  4  0
 11 17  4  0
 12 27  1  0
 13 17  4  0
 13 34  4  0
 15 32  4  0
 16 20  4  0
 16 21  4  0
 16 27  1  0
 18 33  4  0
 19 20  4  0
 19 31  4  0
 21 28  4  0
 22 26  1  0
 22 29  1  0
 23 26  1  0
 23 28  1  0
 24 34  4  0
 25 26  2  0
 28 31  4  0
 29 32  4  0
M  END
$$$$

 Created by Python create_sdf_string function

 34 67  0  0  0  0  0  0  0  0999 V2000
    8.6529   -7.7615   17.5259 C   0  0  0  0  0  0  0  0  0  0  0  0
    2.5345   -8.5081   15.4965 N   0  0  0  0  0  0  0  0  0  0  0  0
    9.9545   -3.9345   26.1398 C   0  0  0  0  0  0  0  0  0  0  0  0
   12.1852   -3.9818   23.5176 C   0  0  0  0  0  0  0  0  0  0  0  0
    1.0795   -9.4911   15.5769 C   0  0  0  0  0  0  0  0  0  0  0  0
    7.7034   -8.4348   17.2707 C   0  0  0  0  0  0  0  0  0  0  0  0
    9.3642   -1.7716   25.3329 C   0  0  0  0  0  0  0  0  0  0  0  0
    0.5118  -10.2625   16.3343 C   0  0  0  0  0  0  0  0  0  0  0  0
   10.6224   -3.3710   21.7602 C   0  0  0  0  0  0  0  0  0  0  0  0
   -1.2336  -11.2443   15.2280 C   0  0  0  0  0  0  0  0  0  0  0  0
   10.7348   -4.6356   25.2717 C   0  0  0  0  0  0  0  0  0  0  0  0
    3.3844   -9.6000   17.8642 N   0  0  0  0  0  0  0  0  0  0  0  0
   -0.8220  -11.4568   15.7071 C   0  0  0  0  0  0  0  0  0  0  0  0
    4.3029   -7.8178   15.8599 O   0  0  0  0  0  0  0  0  0  0  0  0
    9.9788   -5.2828   19.1323 C   0  0  0  0  0  0  0  0  0  0  0  0
    6.7004   -7.4925   17.4174 N   0  0  0  0  0  0  0  0  0  0  0  0
    8.4305   -6.4271   17.8929 N   0  0  0  0  0  0  0  0  0  0  0  0
    0.5064   -9.5419   13.8380 C   0  0  0  0  0  0  0  0  0  0  0  0
    7.9225   -5.0750   15.8197 O   0  0  0  0  0  0  0  0  0  0  0  0
    7.5302   -6.1754   16.4049 C   0  0  0  0  0  0  0  0  0  0  0  0
   10.6982   -4.1300   21.3340 C   0  0  0  0  0  0  0  0  0  0  0  0
    9.4777   -5.1149   17.4897 C   0  0  0  0  0  0  0  0  0  0  0  0
    5.9172   -8.4865   17.4118 C   0  0  0  0  0  0  0  0  0  0  0  0
    9.9852   -1.8280   24.1145 C   0  0  0  0  0  0  0  0  0  0  0  0
    9.8689   -4.4523   16.5331 C   0  0  0  0  0  0  0  0  0  0  0  0
    4.2323   -8.8845   17.9415 C   0  0  0  0  0  0  0  0  0  0  0  0
    1.7404   -8.0042   15.3781 N   0  0  0  0  0  0  0  0  0  0  0  0
   -0.0209  -10.4519   13.3803 C   0  0  0  0  0  0  0  0  0  0  0  0
    5.3093   -7.3079   15.8109 He  0  0  0  0  0  0  0  0  0  0  0  0
    9.2910   -2.7115   26.9009 He  0  0  0  0  0  0  0  0  0  0  0  0
   10.4311   -2.9311   23.9785 He  0  0  0  0  0  0  0  0  0  0  0  0
   10.6023   -4.2315   19.1627 He  0  0  0  0  0  0  0  0  0  0  0  0
   10.4555   -3.0226   17.0887 He  0  0  0  0  0  0  0  0  0  0  0  0
   10.8756   -3.2213   18.7616 He  0  0  0  0  0  0  0  0  0  0  0  0
  1 13  4  0
  1 15  1  0
  1 16  2  0
  1 17  1  0
  1 18  3  0
  1 25  1  0
  2  5  1  0
  2  6  3  0
  2  8  3  0
  2 17  4  0
  2 20  3  0
  2 21  1  0
  2 22  1  0
  2 24  2  0
  2 27  1  0
  3  4  3  0
  3 11  4  0
  3 22  4  0
  4  9  1  0
  4 14  4  0
  5  8  4  0
  5 12  2  0
  5 14  3  0
  5 15  1  0
  5 18  4  0
  5 21  1  0
  6 14  4  0
  6 16  1  0
  6 18  3  0
  7 15  4  0
  7 19  4  0
  7 24  4  0
  8 13  4  0
  8 22  1  0
  8 24  1  0
  9 21  1  0
  9 22  4  0
 10 11  4  0
 10 13  2  0
 10 28  4  0
 11 23  1  0
 12 26  4  0
 13 26  4  0
 13 27  3  0
 14 16  1  0
 14 23  2  0
 15 16  1  0
 15 22  4  0
 15 27  1  0
 16 18  4  0
 16 20  1  0
 16 23  1  0
 16 27  3  0
 17 19  4  0
 17 20  4  0
 17 22  1  0
 18 20  1  0
 18 27  2  0
 18 28  3  0
 19 28  2  0
 20 28  3  0
 22 23  2  0
 22 25  4  0
 22 26  3  0
 23 24  4  0
 23 26  1  0
 27 28  4  0
M  END
$$$$

 Created by Python create_sdf_string function

 34 37  0  0  0  0  0  0  0  0999 V2000
    4.7679   -7.5441   15.8611 C   0  0  0  0  0  0  0  0  0  0  0  0
    8.9890   -7.7409   17.7872 C   0  0  0  0  0  0  0  0  0  0  0  0
    2.4199   -8.7051   15.8867 C   0  0  0  0  0  0  0  0  0  0  0  0
    9.9296   -3.8340   26.3684 C   0  0  0  0  0  0  0  0  0  0  0  0
   11.5217   -3.6142   23.0480 C   0  0  0  0  0  0  0  0  0  0  0  0
    9.2243   -2.6399   26.4561 C   0  0  0  0  0  0  0  0  0  0  0  0
    1.0939   -9.5746   15.3707 C   0  0  0  0  0  0  0  0  0  0  0  0
    7.8735   -8.5034   17.4484 C   0  0  0  0  0  0  0  0  0  0  0  0
    9.2522   -1.7682   25.3690 C   0  0  0  0  0  0  0  0  0  0  0  0
   10.6958   -3.2853   24.2254 C   0  0  0  0  0  0  0  0  0  0  0  0
    0.4932  -10.3684   16.3377 C   0  0  0  0  0  0  0  0  0  0  0  0
   10.8794   -3.3522   21.6819 C   0  0  0  0  0  0  0  0  0  0  0  0
   -0.9378  -11.2960   14.6914 C   0  0  0  0  0  0  0  0  0  0  0  0
   10.6837   -4.1823   25.2496 C   0  0  0  0  0  0  0  0  0  0  0  0
    3.5084   -9.2307   17.2706 N   0  0  0  0  0  0  0  0  0  0  0  0
   10.5739   -4.2348   19.4583 C   0  0  0  0  0  0  0  0  0  0  0  0
   -0.5307  -11.2362   15.9675 C   0  0  0  0  0  0  0  0  0  0  0  0
    3.6960   -7.9674   15.8346 C   0  0  0  0  0  0  0  0  0  0  0  0
   10.6976   -3.3049   17.3322 C   0  0  0  0  0  0  0  0  0  0  0  0
   10.9552   -3.1567   18.6904 C   0  0  0  0  0  0  0  0  0  0  0  0
    9.8828   -5.2944   19.0247 C   0  0  0  0  0  0  0  0  0  0  0  0
    6.7973   -7.5538   17.0973 N   0  0  0  0  0  0  0  0  0  0  0  0
    8.6952   -6.3786   17.3196 N   0  0  0  0  0  0  0  0  0  0  0  0
    0.6323   -9.6134   14.0838 C   0  0  0  0  0  0  0  0  0  0  0  0
    7.2652   -5.4274   15.6453 O   0  0  0  0  0  0  0  0  0  0  0  0
    7.4868   -6.3090   16.6601 C   0  0  0  0  0  0  0  0  0  0  0  0
   10.9576   -4.2837   20.8131 C   0  0  0  0  0  0  0  0  0  0  0  0
    9.5146   -5.3475   17.7403 C   0  0  0  0  0  0  0  0  0  0  0  0
    5.4991   -8.0114   16.9446 C   0  0  0  0  0  0  0  0  0  0  0  0
    9.9235   -2.0551   24.2397 C   0  0  0  0  0  0  0  0  0  0  0  0
    9.8999   -4.3694   16.9011 C   0  0  0  0  0  0  0  0  0  0  0  0
    4.7309   -8.9143   17.5935 C   0  0  0  0  0  0  0  0  0  0  0  0
    2.1795   -7.8620   15.3357 N   0  0  0  0  0  0  0  0  0  0  0  0
   -0.4129  -10.5039   13.7009 C   0  0  0  0  0  0  0  0  0  0  0  0
  1 18  4  0
  1 29  4  0
  2  8  1  0
  2 23  1  0
  3  7  1  0
  3 15  4  0
  3 33  1  0
  4  6  4  0
  4 14  4  0
  5 10  1  0
  5 12  1  0
  6  9  4  0
  7 11  4  0
  7 24  4  0
  8 22  1  0
  9 30  4  0
 10 14  4  0
 10 30  4  0
 11 17  4  0
 12 27  1  0
 13 17  4  0
 13 34  4  0
 15 32  4  0
 16 20  4  0
 16 21  4  0
 16 27  1  0
 19 20  4  0
 19 31  4  0
 21 28  4  0
 22 26  1  0
 22 29  1  0
 23 26  1  0
 23 28  1  0
 24 34  4  0
 25 26  2  0
 28 31  4  0
 29 32  4  0
M  END
$$$$

 Created by Python create_sdf_string function

 34 65  0  0  0  0  0  0  0  0999 V2000
    8.8527   -8.3413   16.9981 C   0  0  0  0  0  0  0  0  0  0  0  0
    2.5778   -8.7617   16.2257 F   0  0  0  0  0  0  0  0  0  0  0  0
    9.8576   -3.8479   26.3171 C   0  0  0  0  0  0  0  0  0  0  0  0
   11.0082   -3.3249   22.4419 C   0  0  0  0  0  0  0  0  0  0  0  0
    9.1072   -2.4899   26.5078 C   0  0  0  0  0  0  0  0  0  0  0  0
    0.9907   -9.7482   15.5523 C   0  0  0  0  0  0  0  0  0  0  0  0
    8.1434   -8.5441   17.4180 C   0  0  0  0  0  0  0  0  0  0  0  0
    9.2881   -1.7097   25.3844 C   0  0  0  0  0  0  0  0  0  0  0  0
   10.8935   -3.5524   24.2548 C   0  0  0  0  0  0  0  0  0  0  0  0
    0.5326  -10.3351   16.3134 C   0  0  0  0  0  0  0  0  0  0  0  0
   10.7194   -3.3667   21.5428 C   0  0  0  0  0  0  0  0  0  0  0  0
   -0.2260  -11.6286   14.1324 F   0  0  0  0  0  0  0  0  0  0  0  0
    9.9490   -3.9035   19.4958 C   0  0  0  0  0  0  0  0  0  0  0  0
   -0.6520  -11.3903   16.2018 S   0  0  0  0  0  0  0  0  0  0  0  0
    3.7749   -8.3208   16.4744 O   0  0  0  0  0  0  0  0  0  0  0  0
   10.8914   -3.0171   18.2188 C   0  0  0  0  0  0  0  0  0  0  0  0
    9.8780   -5.2607   19.1668 C   0  0  0  0  0  0  0  0  0  0  0  0
    6.2365   -7.8237   17.4719 N   0  0  0  0  0  0  0  0  0  0  0  0
    0.7988   -9.5821   13.6925 C   0  0  0  0  0  0  0  0  0  0  0  0
    7.0762   -5.6812   15.8247 O   0  0  0  0  0  0  0  0  0  0  0  0
    7.6595   -6.4063   16.6780 C   0  0  0  0  0  0  0  0  0  0  0  0
   11.2413   -5.0321   20.5949 C   0  0  0  0  0  0  0  0  0  0  0  0
    9.5465   -5.4198   17.6371 C   0  0  0  0  0  0  0  0  0  0  0  0
    5.7783   -7.4787   17.2772 C   0  0  0  0  0  0  0  0  0  0  0  0
   10.0217   -2.1751   23.8615 C   0  0  0  0  0  0  0  0  0  0  0  0
    9.9595   -4.4343   16.9411 C   0  0  0  0  0  0  0  0  0  0  0  0
    4.6724   -8.8693   17.4849 C   0  0  0  0  0  0  0  0  0  0  0  0
    2.1370   -8.3213   14.9207 N   0  0  0  0  0  0  0  0  0  0  0  0
   -0.1878  -10.3594   13.9916 C   0  0  0  0  0  0  0  0  0  0  0  0
    4.1474   -7.7366   16.1824 He  0  0  0  0  0  0  0  0  0  0  0  0
   10.8006   -4.4301   25.2592 He  0  0  0  0  0  0  0  0  0  0  0  0
    3.4225   -8.7458   17.3851 He  0  0  0  0  0  0  0  0  0  0  0  0
   10.6115   -3.0991   17.4488 He  0  0  0  0  0  0  0  0  0  0  0  0
    8.2431   -7.4402   17.1812 He  0  0  0  0  0  0  0  0  0  0  0  0
  1  7  4  0
  1 11  2  0
  1 14  3  0
  1 18  1  0
  2  5  1  0
  2  6  1  0
  2 24  1  0
  2 27  1  0
  3  5  4  0
  3 17  4  0
  3 27  1  0
  4  9  1  0
  4 12  1  0
  4 13  2  0
  4 15  3  0
  4 16  1  0
  4 17  4  0
  4 21  1  0
  5  8  4  0
  6 10  4  0
  6 19  4  0
  7 12  4  0
  7 18  1  0
  7 25  1  0
  8 13  3  0
  8 28  4  0
  9 11  3  0
  9 19  3  0
  9 25  4  0
  9 28  3  0
 10 11  3  0
 10 14  4  0
 10 19  4  0
 10 26  2  0
 11 12  2  0
 11 22  1  0
 12 14  4  0
 12 17  2  0
 12 19  2  0
 12 27  2  0
 12 29  4  0
 13 15  2  0
 13 16  4  0
 14 15  3  0
 14 21  3  0
 15 19  3  0
 16 18  2  0
 16 28  4  0
 17 18  2  0
 17 20  2  0
 17 21  1  0
 17 23  4  0
 17 28  3  0
 17 29  1  0
 18 21  1  0
 18 24  1  0
 19 29  4  0
 20 21  2  0
 20 25  3  0
 23 24  3  0
 23 26  4  0
 23 27  3  0
 24 25  1  0
 24 27  4  0
 28 29  1  0
M  END
$$$$

 Created by Python create_sdf_string function

 34 38  0  0  0  0  0  0  0  0999 V2000
    4.4972   -7.4947   16.0259 C   0  0  0  0  0  0  0  0  0  0  0  0
    9.0058   -8.0120   17.3335 C   0  0  0  0  0  0  0  0  0  0  0  0
    2.4699   -8.8291   15.9499 C   0  0  0  0  0  0  0  0  0  0  0  0
    9.9604   -3.8365   26.2432 C   0  0  0  0  0  0  0  0  0  0  0  0
   11.4163   -3.6973   22.8999 C   0  0  0  0  0  0  0  0  0  0  0  0
    9.2283   -2.6562   26.3604 C   0  0  0  0  0  0  0  0  0  0  0  0
    1.1207   -9.7114   15.4257 C   0  0  0  0  0  0  0  0  0  0  0  0
    7.7359   -8.6204   17.4591 C   0  0  0  0  0  0  0  0  0  0  0  0
    9.2277   -1.7361   25.2885 C   0  0  0  0  0  0  0  0  0  0  0  0
   10.6042   -3.2801   24.0821 C   0  0  0  0  0  0  0  0  0  0  0  0
    0.5584  -10.5126   16.3405 C   0  0  0  0  0  0  0  0  0  0  0  0
   10.7281   -3.5520   21.6251 C   0  0  0  0  0  0  0  0  0  0  0  0
   -0.7164  -11.4605   14.5647 C   0  0  0  0  0  0  0  0  0  0  0  0
   10.6387   -4.1899   25.1345 C   0  0  0  0  0  0  0  0  0  0  0  0
    3.4537   -9.3730   17.3498 C   0  0  0  0  0  0  0  0  0  0  0  0
   10.5864   -4.3842   19.3367 C   0  0  0  0  0  0  0  0  0  0  0  0
   -0.4268  -11.4098   15.8990 C   0  0  0  0  0  0  0  0  0  0  0  0
    3.5172   -7.9627   15.9400 C   0  0  0  0  0  0  0  0  0  0  0  0
   10.5800   -3.3934   17.2185 C   0  0  0  0  0  0  0  0  0  0  0  0
   10.8539   -3.2671   18.5733 C   0  0  0  0  0  0  0  0  0  0  0  0
    9.8381   -5.4486   18.8769 C   0  0  0  0  0  0  0  0  0  0  0  0
    6.7467   -7.6997   17.0920 N   0  0  0  0  0  0  0  0  0  0  0  0
    8.7560   -6.6481   17.0681 C   0  0  0  0  0  0  0  0  0  0  0  0
    0.7791   -9.6616   14.0996 C   0  0  0  0  0  0  0  0  0  0  0  0
    6.9763   -5.6074   15.8156 O   0  0  0  0  0  0  0  0  0  0  0  0
    7.3999   -6.5194   16.6723 C   0  0  0  0  0  0  0  0  0  0  0  0
   11.1679   -4.4962   20.6509 C   0  0  0  0  0  0  0  0  0  0  0  0
    9.5067   -5.5478   17.5698 C   0  0  0  0  0  0  0  0  0  0  0  0
    5.3973   -7.9873   16.9725 C   0  0  0  0  0  0  0  0  0  0  0  0
    9.8886   -2.0436   24.1165 C   0  0  0  0  0  0  0  0  0  0  0  0
    9.8971   -4.5301   16.7332 C   0  0  0  0  0  0  0  0  0  0  0  0
    4.7115   -8.9682   17.6755 C   0  0  0  0  0  0  0  0  0  0  0  0
    2.3939   -7.9286   15.1645 N   0  0  0  0  0  0  0  0  0  0  0  0
   -0.1525  -10.6483   13.6378 C   0  0  0  0  0  0  0  0  0  0  0  0
  1 18  4  0
  1 29  4  0
  2  8  1  0
  2 23  1  0
  3  7  1  0
  3 15  4  0
  3 33  4  0
  4  6  4  0
  4 14  4  0
  5 10  1  0
  5 12  1  0
  6  9  4  0
  7 11  4  0
  7 24  4  0
  8 22  1  0
  9 30  4  0
 10 14  4  0
 10 30  4  0
 11 17  4  0
 12 27  1  0
 13 17  4  0
 13 34  4  0
 15 32  4  0
 16 20  4  0
 16 21  4  0
 16 27  1  0
 18 33  1  0
 19 20  4  0
 19 31  4  0
 21 28  4  0
 22 26  1  0
 22 29  1  0
 23 26  1  0
 23 28  1  0
 24 34  4  0
 25 26  2  0
 28 31  4  0
 29 32  4  0
M  END
$$$$

 Created by Python create_sdf_string function

 34 68  0  0  0  0  0  0  0  0999 V2000
    5.0817   -7.5077   15.8865 C   0  0  0  0  0  0  0  0  0  0  0  0
    9.4227   -7.3940   17.3785 C   0  0  0  0  0  0  0  0  0  0  0  0
    2.4656   -8.8670   16.2446 S   0  0  0  0  0  0  0  0  0  0  0  0
   10.1053   -3.7338   26.2492 C   0  0  0  0  0  0  0  0  0  0  0  0
    8.9148   -2.7613   26.5997 C   0  0  0  0  0  0  0  0  0  0  0  0
    0.9696   -9.8615   15.5130 C   0  0  0  0  0  0  0  0  0  0  0  0
    7.6989   -8.8199   17.0759 C   0  0  0  0  0  0  0  0  0  0  0  0
    9.4295   -1.8919   24.9052 C   0  0  0  0  0  0  0  0  0  0  0  0
   10.7582   -3.1303   24.3274 C   0  0  0  0  0  0  0  0  0  0  0  0
    0.3281  -10.5031   16.5577 P   0  0  0  0  0  0  0  0  0  0  0  0
   10.7282   -3.4039   21.6489 C   0  0  0  0  0  0  0  0  0  0  0  0
   10.7141   -4.4210   25.0264 C   0  0  0  0  0  0  0  0  0  0  0  0
    2.9968   -9.9324   17.9679 C   0  0  0  0  0  0  0  0  0  0  0  0
   10.7799   -4.5552   19.0121 C   0  0  0  0  0  0  0  0  0  0  0  0
   -0.3885  -11.4113   16.2027 C   0  0  0  0  0  0  0  0  0  0  0  0
   10.3240   -3.5807   17.1520 C   0  0  0  0  0  0  0  0  0  0  0  0
   10.9711   -3.3762   18.4524 C   0  0  0  0  0  0  0  0  0  0  0  0
    9.8435   -5.2645   18.9731 B   0  0  0  0  0  0  0  0  0  0  0  0
    6.4053   -8.0177   16.9415 N   0  0  0  0  0  0  0  0  0  0  0  0
    9.2844   -6.5857   16.7048 C   0  0  0  0  0  0  0  0  0  0  0  0
    6.9331   -5.3905   15.6351 O   0  0  0  0  0  0  0  0  0  0  0  0
    7.1103   -6.4894   16.7808 C   0  0  0  0  0  0  0  0  0  0  0  0
   10.7453   -4.9883   20.8645 Cl  0  0  0  0  0  0  0  0  0  0  0  0
    9.8862   -2.1625   24.5288 C   0  0  0  0  0  0  0  0  0  0  0  0
   10.0557   -4.6168   16.5745 C   0  0  0  0  0  0  0  0  0  0  0  0
    4.2862   -8.0627   18.1745 C   0  0  0  0  0  0  0  0  0  0  0  0
    2.2885   -8.2782   15.7182 N   0  0  0  0  0  0  0  0  0  0  0  0
    0.0836  -10.7361   13.5409 C   0  0  0  0  0  0  0  0  0  0  0  0
   11.0808   -3.3381   22.8562 He  0  0  0  0  0  0  0  0  0  0  0  0
   -0.8944  -11.4089   14.0629 He  0  0  0  0  0  0  0  0  0  0  0  0
    3.8009   -8.3484   15.5571 He  0  0  0  0  0  0  0  0  0  0  0  0
    0.9387   -9.1888   14.2899 He  0  0  0  0  0  0  0  0  0  0  0  0
    9.4763   -5.4564   17.7318 He  0  0  0  0  0  0  0  0  0  0  0  0
    5.0149   -8.3193   16.9129 He  0  0  0  0  0  0  0  0  0  0  0  0
  1  3  4  0
  1  6  1  0
  1  9  2  0
  1 11  1  0
  1 24  1  0
  2  7  1  0
  2 20  1  0
  2 22  4  0
  2 24  4  0
  2 27  1  0
  2 28  2  0
  3  6  1  0
  3  8  3  0
  3 13  3  0
  3 17  1  0
  3 19  2  0
  3 22  3  0
  3 27  4  0
  4  5  4  0
  4  6  1  0
  4 11  3  0
  4 12  4  0
  5  8  4  0
  5 19  2  0
  5 20  3  0
  5 25  2  0
  5 26  1  0
  6 10  4  0
  6 26  3  0
  7  9  1  0
  8 10  4  0
  8 21  4  0
  8 24  4  0
  8 25  2  0
  8 27  1  0
  9 12  4  0
  9 14  2  0
  9 21  3  0
  9 24  4  0
  9 26  2  0
 10 11  1  0
 10 15  4  0
 11 26  4  0
 12 13  3  0
 13 14  2  0
 13 26  4  0
 13 27  1  0
 13 28  3  0
 14 17  4  0
 14 18  4  0
 14 19  3  0
 14 21  3  0
 14 23  1  0
 14 27  2  0
 15 16  2  0
 15 17  2  0
 15 20  2  0
 16 17  4  0
 16 22  1  0
 16 25  4  0
 16 27  3  0
 18 26  2  0
 19 22  1  0
 21 23  1  0
 23 24  2  0
 23 27  1  0
 23 28  3  0
 24 25  2  0
M  END
$$$$

 Created by Python create_sdf_string function

 34 38  0  0  0  0  0  0  0  0999 V2000
    4.8500   -7.5216   15.6304 C   0  0  0  0  0  0  0  0  0  0  0  0
    8.9918   -7.9575   17.3745 C   0  0  0  0  0  0  0  0  0  0  0  0
    2.3483   -9.1903   16.2363 C   0  0  0  0  0  0  0  0  0  0  0  0
    9.9696   -3.9156   26.2578 C   0  0  0  0  0  0  0  0  0  0  0  0
   11.3868   -3.6053   22.8811 C   0  0  0  0  0  0  0  0  0  0  0  0
    9.2027   -2.7798   26.3997 C   0  0  0  0  0  0  0  0  0  0  0  0
    1.1096   -9.8794   15.6894 C   0  0  0  0  0  0  0  0  0  0  0  0
    7.6379   -8.6787   17.2514 C   0  0  0  0  0  0  0  0  0  0  0  0
    9.1792   -1.8168   25.3672 C   0  0  0  0  0  0  0  0  0  0  0  0
   10.6087   -3.2458   24.1017 C   0  0  0  0  0  0  0  0  0  0  0  0
    0.3863  -10.6813   16.4674 C   0  0  0  0  0  0  0  0  0  0  0  0
   10.6950   -3.5179   21.6279 C   0  0  0  0  0  0  0  0  0  0  0  0
   -0.7853  -11.4139   14.5042 C   0  0  0  0  0  0  0  0  0  0  0  0
   10.6809   -4.1494   25.1286 C   0  0  0  0  0  0  0  0  0  0  0  0
    3.1662   -9.3252   17.3582 C   0  0  0  0  0  0  0  0  0  0  0  0
   10.5976   -4.4859   19.3023 C   0  0  0  0  0  0  0  0  0  0  0  0
   -0.5981  -11.4555   15.8406 C   0  0  0  0  0  0  0  0  0  0  0  0
    3.7548   -7.7729   15.4483 C   0  0  0  0  0  0  0  0  0  0  0  0
   10.6935   -3.4374   17.2275 C   0  0  0  0  0  0  0  0  0  0  0  0
   10.9393   -3.4006   18.5606 C   0  0  0  0  0  0  0  0  0  0  0  0
    9.9096   -5.5251   18.8074 C   0  0  0  0  0  0  0  0  0  0  0  0
    6.7007   -7.6928   17.0296 N   0  0  0  0  0  0  0  0  0  0  0  0
    8.7640   -6.6114   16.9190 C   0  0  0  0  0  0  0  0  0  0  0  0
    0.8338   -9.7199   14.2845 C   0  0  0  0  0  0  0  0  0  0  0  0
    6.9513   -5.5447   15.7183 O   0  0  0  0  0  0  0  0  0  0  0  0
    7.3587   -6.4533   16.4995 C   0  0  0  0  0  0  0  0  0  0  0  0
   11.0935   -4.5979   20.6792 C   0  0  0  0  0  0  0  0  0  0  0  0
    9.5443   -5.5413   17.4705 C   0  0  0  0  0  0  0  0  0  0  0  0
    5.2681   -8.0952   16.7906 C   0  0  0  0  0  0  0  0  0  0  0  0
    9.8383   -2.0655   24.1975 C   0  0  0  0  0  0  0  0  0  0  0  0
    9.9157   -4.4496   16.6897 C   0  0  0  0  0  0  0  0  0  0  0  0
    4.4637   -8.9109   17.5630 C   0  0  0  0  0  0  0  0  0  0  0  0
    2.8137   -8.3461   15.5415 N   0  0  0  0  0  0  0  0  0  0  0  0
   -0.1295  -10.5536   13.7126 C   0  0  0  0  0  0  0  0  0  0  0  0
  1 18  4  0
  1 29  4  0
  2  8  1  0
  2 23  1  0
  3  7  1  0
  3 15  4  0
  3 33  4  0
  4  6  4  0
  4 14  4  0
  5 10  1  0
  5 12  1  0
  6  9  4  0
  7 11  4  0
  7 24  4  0
  8 22  1  0
  9 30  4  0
 10 14  4  0
 10 30  4  0
 11 17  4  0
 12 27  1  0
 13 17  4  0
 13 34  4  0
 15 32  4  0
 16 20  4  0
 16 21  4  0
 16 27  1  0
 18 33  4  0
 19 20  4  0
 19 31  4  0
 21 28  4  0
 22 26  1  0
 22 29  1  0
 23 26  1  0
 23 28  1  0
 24 34  4  0
 25 26  2  0
 28 31  4  0
 29 32  4  0
M  END
$$$$

 Created by Python create_sdf_string function

 34 80  0  0  0  0  0  0  0  0999 V2000
    4.7467   -7.8152   15.9160 C   0  0  0  0  0  0  0  0  0  0  0  0
    9.2473   -8.0122   17.5943 C   0  0  0  0  0  0  0  0  0  0  0  0
    2.4015   -8.8235   16.3102 C   0  0  0  0  0  0  0  0  0  0  0  0
   10.4120   -3.9655   26.1454 C   0  0  0  0  0  0  0  0  0  0  0  0
   10.9868   -3.0821   23.1608 C   0  0  0  0  0  0  0  0  0  0  0  0
    9.0770   -2.6215   26.5360 C   0  0  0  0  0  0  0  0  0  0  0  0
    1.0815  -10.0513   15.7263 C   0  0  0  0  0  0  0  0  0  0  0  0
    7.5135   -8.7577   17.1468 C   0  0  0  0  0  0  0  0  0  0  0  0
    9.0787   -1.7755   25.2899 C   0  0  0  0  0  0  0  0  0  0  0  0
   10.3268   -3.2304   24.0847 C   0  0  0  0  0  0  0  0  0  0  0  0
    0.5040  -10.5943   16.6082 C   0  0  0  0  0  0  0  0  0  0  0  0
   10.6120   -3.5902   21.5254 C   0  0  0  0  0  0  0  0  0  0  0  0
   -0.3461  -11.3625   14.6417 C   0  0  0  0  0  0  0  0  0  0  0  0
   10.5130   -4.2415   25.3774 C   0  0  0  0  0  0  0  0  0  0  0  0
    3.5390   -9.6123   17.6166 C   0  0  0  0  0  0  0  0  0  0  0  0
   10.3417   -4.4043   18.5466 C   0  0  0  0  0  0  0  0  0  0  0  0
   -0.4747  -11.6379   15.7561 C   0  0  0  0  0  0  0  0  0  0  0  0
    3.8472   -7.3671   16.1185 C   0  0  0  0  0  0  0  0  0  0  0  0
   10.5342   -3.6551   17.0101 C   0  0  0  0  0  0  0  0  0  0  0  0
   10.7466   -3.4833   18.2606 C   0  0  0  0  0  0  0  0  0  0  0  0
    9.6755   -5.8285   18.6678 C   0  0  0  0  0  0  0  0  0  0  0  0
    6.7991   -7.8200   16.9462 N   0  0  0  0  0  0  0  0  0  0  0  0
    7.9367   -6.8416   16.5832 C   0  0  0  0  0  0  0  0  0  0  0  0
    0.7238   -9.5419   14.0778 C   0  0  0  0  0  0  0  0  0  0  0  0
    7.2450   -5.8130   15.1410 O   0  0  0  0  0  0  0  0  0  0  0  0
    7.4203   -6.7080   16.2747 C   0  0  0  0  0  0  0  0  0  0  0  0
    4.8345   -7.9601   17.2754 C   0  0  0  0  0  0  0  0  0  0  0  0
    9.7730   -2.2100   24.2623 C   0  0  0  0  0  0  0  0  0  0  0  0
    9.9319   -4.2359   16.8512 C   0  0  0  0  0  0  0  0  0  0  0  0
    3.3074   -8.5463   16.9607 C   0  0  0  0  0  0  0  0  0  0  0  0
    2.7505   -8.4750   15.7877 N   0  0  0  0  0  0  0  0  0  0  0  0
   -0.4702  -10.7566   13.7258 C   0  0  0  0  0  0  0  0  0  0  0  0
   11.2031   -4.0821   19.6254 He  0  0  0  0  0  0  0  0  0  0  0  0
    9.6681   -5.6440   17.4252 He  0  0  0  0  0  0  0  0  0  0  0  0
  1  2  2  0
  1  4  1  0
  1 20  2  0
  1 21  4  0
  1 24  3  0
  1 27  4  0
  2  9  4  0
  2 12  1  0
  2 16  2  0
  2 23  1  0
  2 30  1  0
  3 11  1  0
  3 22  4  0
  3 23  1  0
  3 27  3  0
  4  5  2  0
  4  6  4  0
  4 12  2  0
  4 14  4  0
  4 30  2  0
  5 10  1  0
  5 12  1  0
  5 16  2  0
  5 17  4  0
  5 21  1  0
  5 22  2  0
  6  9  4  0
  6 23  1  0
  7 11  4  0
  7 15  4  0
  7 22  4  0
  7 26  3  0
  7 27  2  0
  7 31  1  0
  8 13  3  0
  8 22  4  0
  8 31  2  0
  9 11  4  0
  9 16  2  0
  9 18  2  0
  9 23  2  0
  9 24  3  0
  9 28  4  0
  9 29  1  0
  9 30  4  0
  9 31  3  0
 10 14  4  0
 10 27  3  0
 10 28  1  0
 10 29  4  0
 11 15  1  0
 12 18  1  0
 12 23  1  0
 12 27  1  0
 13 17  4  0
 13 29  3  0
 13 31  4  0
 13 32  4  0
 14 25  1  0
 15 18  1  0
 15 30  2  0
 15 31  3  0
 16 18  4  0
 16 19  1  0
 16 20  4  0
 16 26  4  0
 16 32  4  0
 17 22  3  0
 17 25  4  0
 17 30  4  0
 18 28  4  0
 19 20  4  0
 19 29  4  0
 22 26  1  0
 22 29  1  0
 23 26  1  0
 23 30  3  0
 24 32  4  0
 25 31  3  0
 31 32  4  0
M  END
$$$$

 Created by Python create_sdf_string function

 34 38  0  0  0  0  0  0  0  0999 V2000
    4.5176   -7.5511   16.0624 C   0  0  0  0  0  0  0  0  0  0  0  0
    8.9023   -8.0373   17.4551 C   0  0  0  0  0  0  0  0  0  0  0  0
    2.4734   -9.0679   16.2501 C   0  0  0  0  0  0  0  0  0  0  0  0
   10.0633   -3.8562   26.2153 C   0  0  0  0  0  0  0  0  0  0  0  0
   11.2949   -3.4121   22.7482 C   0  0  0  0  0  0  0  0  0  0  0  0
    9.2820   -2.7391   26.4285 C   0  0  0  0  0  0  0  0  0  0  0  0
    1.1464   -9.8217   15.5970 C   0  0  0  0  0  0  0  0  0  0  0  0
    7.5974   -8.6320   17.3030 C   0  0  0  0  0  0  0  0  0  0  0  0
    9.0888   -1.8157   25.3856 C   0  0  0  0  0  0  0  0  0  0  0  0
   10.5068   -3.1686   24.0231 C   0  0  0  0  0  0  0  0  0  0  0  0
    0.4106  -10.7333   16.4236 C   0  0  0  0  0  0  0  0  0  0  0  0
   10.5507   -3.7083   21.5709 C   0  0  0  0  0  0  0  0  0  0  0  0
   -0.8132  -11.4839   14.5615 C   0  0  0  0  0  0  0  0  0  0  0  0
   10.6813   -4.0886   25.0166 C   0  0  0  0  0  0  0  0  0  0  0  0
    3.3124   -9.5626   17.3881 C   0  0  0  0  0  0  0  0  0  0  0  0
   10.5774   -4.3635   19.0158 C   0  0  0  0  0  0  0  0  0  0  0  0
   -0.5673  -11.5851   15.8645 C   0  0  0  0  0  0  0  0  0  0  0  0
    3.5617   -7.3844   15.5550 C   0  0  0  0  0  0  0  0  0  0  0  0
   10.4772   -3.5081   16.8052 C   0  0  0  0  0  0  0  0  0  0  0  0
   10.8681   -3.3703   18.1557 C   0  0  0  0  0  0  0  0  0  0  0  0
    9.8717   -5.4504   18.6485 C   0  0  0  0  0  0  0  0  0  0  0  0
    6.7254   -7.7184   16.8534 N   0  0  0  0  0  0  0  0  0  0  0  0
    8.7839   -6.7250   16.8605 C   0  0  0  0  0  0  0  0  0  0  0  0
    0.7204   -9.7438   14.2808 C   0  0  0  0  0  0  0  0  0  0  0  0
    6.9768   -5.7196   15.3400 O   0  0  0  0  0  0  0  0  0  0  0  0
    7.4607   -6.5434   16.2371 C   0  0  0  0  0  0  0  0  0  0  0  0
   11.1667   -4.2329   20.3460 C   0  0  0  0  0  0  0  0  0  0  0  0
    9.4430   -5.6055   17.3164 C   0  0  0  0  0  0  0  0  0  0  0  0
    5.0959   -8.1819   16.8397 C   0  0  0  0  0  0  0  0  0  0  0  0
    9.6809   -2.0386   24.1485 C   0  0  0  0  0  0  0  0  0  0  0  0
    9.7583   -4.5920   16.4178 C   0  0  0  0  0  0  0  0  0  0  0  0
    4.2086   -9.0574   17.3226 C   0  0  0  0  0  0  0  0  0  0  0  0
    2.5679   -8.1515   15.6819 N   0  0  0  0  0  0  0  0  0  0  0  0
   -0.2650  -10.6377   13.7170 C   0  0  0  0  0  0  0  0  0  0  0  0
  1 18  4  0
  1 29  4  0
  2  8  1  0
  2 23  1  0
  3  7  1  0
  3 15  4  0
  3 33  4  0
  4  6  4  0
  4 14  4  0
  5 10  1  0
  5 12  1  0
  6  9  4  0
  7 11  4  0
  7 24  4  0
  8 22  1  0
  9 30  4  0
 10 14  4  0
 10 30  4  0
 11 17  4  0
 12 27  1  0
 13 17  4  0
 13 34  4  0
 15 32  4  0
 16 20  4  0
 16 21  4  0
 16 27  1  0
 18 33  4  0
 19 20  4  0
 19 31  4  0
 21 28  4  0
 22 26  1  0
 22 29  1  0
 23 26  1  0
 23 28  1  0
 24 34  4  0
 25 26  2  0
 28 31  4  0
 29 32  4  0
M  END
$$$$

 Created by Python create_sdf_string function

 34 54  0  0  0  0  0  0  0  0999 V2000
    5.0825   -7.4866   15.9779 C   0  0  0  0  0  0  0  0  0  0  0  0
    2.6989   -8.7555   16.1289 I   0  0  0  0  0  0  0  0  0  0  0  0
   10.3478   -3.7209   26.2981 C   0  0  0  0  0  0  0  0  0  0  0  0
    9.2154   -2.5972   26.2824 C   0  0  0  0  0  0  0  0  0  0  0  0
    1.1247   -9.7832   15.6527 C   0  0  0  0  0  0  0  0  0  0  0  0
    7.6190   -8.3528   17.2592 C   0  0  0  0  0  0  0  0  0  0  0  0
    9.0164   -1.7856   25.4536 C   0  0  0  0  0  0  0  0  0  0  0  0
   10.6522   -3.0654   24.1667 I   0  0  0  0  0  0  0  0  0  0  0  0
    0.3559  -10.7283   16.3170 C   0  0  0  0  0  0  0  0  0  0  0  0
   10.4736   -3.7150   21.4977 C   0  0  0  0  0  0  0  0  0  0  0  0
   -0.5563  -11.1553   14.2157 C   0  0  0  0  0  0  0  0  0  0  0  0
   10.8432   -4.0416   25.0853 C   0  0  0  0  0  0  0  0  0  0  0  0
   -0.5726  -11.6930   15.5940 C   0  0  0  0  0  0  0  0  0  0  0  0
    3.7535   -7.5883   15.2600 C   0  0  0  0  0  0  0  0  0  0  0  0
   10.4316   -3.6073   16.5829 C   0  0  0  0  0  0  0  0  0  0  0  0
   11.0524   -3.5335   18.0203 C   0  0  0  0  0  0  0  0  0  0  0  0
    9.8791   -5.6706   18.6143 C   0  0  0  0  0  0  0  0  0  0  0  0
    0.6845   -9.7500   14.0940 C   0  0  0  0  0  0  0  0  0  0  0  0
    6.2018   -5.8403   15.5704 O   0  0  0  0  0  0  0  0  0  0  0  0
    7.1127   -6.7531   16.1651 C   0  0  0  0  0  0  0  0  0  0  0  0
   10.7771   -4.2386   20.7380 O   0  0  0  0  0  0  0  0  0  0  0  0
    9.4903   -5.6291   17.4227 C   0  0  0  0  0  0  0  0  0  0  0  0
    4.9655   -8.1685   16.8650 C   0  0  0  0  0  0  0  0  0  0  0  0
    9.4146   -1.8063   23.9506 C   0  0  0  0  0  0  0  0  0  0  0  0
   10.0948   -4.7715   16.7246 C   0  0  0  0  0  0  0  0  0  0  0  0
    4.2373   -9.3155   16.8751 C   0  0  0  0  0  0  0  0  0  0  0  0
    2.9007   -7.5355   15.1435 N   0  0  0  0  0  0  0  0  0  0  0  0
   -0.2339  -10.7038   13.9306 C   0  0  0  0  0  0  0  0  0  0  0  0
    9.4599   -8.3131   16.8482 He  0  0  0  0  0  0  0  0  0  0  0  0
   10.6645   -3.9530   22.9536 He  0  0  0  0  0  0  0  0  0  0  0  0
    3.3597   -9.4724   17.6593 He  0  0  0  0  0  0  0  0  0  0  0  0
   11.0054   -4.8538   19.3247 He  0  0  0  0  0  0  0  0  0  0  0  0
    6.5514   -7.4698   16.0246 He  0  0  0  0  0  0  0  0  0  0  0  0
    8.2701   -6.5202   17.0588 He  0  0  0  0  0  0  0  0  0  0  0  0
  1  2  4  0
  1  3  3  0
  1  6  3  0
  1 12  1  0
  1 14  4  0
  1 23  4  0
  1 24  3  0
  2  5  1  0
  2  8  1  0
  2 27  4  0
  2 28  2  0
  3  4  4  0
  3  6  3  0
  3 12  4  0
  4  6  2  0
  4  7  4  0
  4 21  4  0
  5  9  4  0
  5 16  3  0
  5 18  4  0
  6 11  4  0
  7 17  3  0
  7 21  1  0
  7 24  4  0
  8 12  4  0
  8 19  1  0
  8 23  4  0
  8 24  4  0
  9 13  4  0
  9 15  4  0
  9 27  2  0
 10 19  1  0
 11 13  4  0
 11 14  4  0
 11 18  4  0
 11 28  2  0
 12 21  2  0
 13 15  1  0
 13 21  2  0
 13 23  2  0
 13 25  4  0
 14 22  3  0
 14 28  3  0
 15 16  4  0
 15 25  4  0
 16 26  1  0
 17 19  3  0
 17 22  4  0
 18 21  2  0
 18 26  1  0
 18 28  4  0
 19 26  1  0
 22 25  4  0
 23 26  4  0
M  END
$$$$

 Created by Python create_sdf_string function

 34 37  0  0  0  0  0  0  0  0999 V2000
    4.7383   -7.4865   15.7480 C   0  0  0  0  0  0  0  0  0  0  0  0
    8.8610   -8.0377   17.1122 C   0  0  0  0  0  0  0  0  0  0  0  0
    2.4342   -9.0850   15.9936 C   0  0  0  0  0  0  0  0  0  0  0  0
   10.1840   -3.6170   26.3618 C   0  0  0  0  0  0  0  0  0  0  0  0
   11.0427   -3.7080   22.7598 C   0  0  0  0  0  0  0  0  0  0  0  0
    9.3056   -2.5440   26.4270 C   0  0  0  0  0  0  0  0  0  0  0  0
    1.2365   -9.7691   15.5116 C   0  0  0  0  0  0  0  0  0  0  0  0
    7.6444   -8.7276   17.1169 C   0  0  0  0  0  0  0  0  0  0  0  0
    9.0553   -1.7534   25.2991 C   0  0  0  0  0  0  0  0  0  0  0  0
   10.4425   -3.2472   24.0316 C   0  0  0  0  0  0  0  0  0  0  0  0
    0.5059  -10.6913   16.3244 C   0  0  0  0  0  0  0  0  0  0  0  0
   10.4679   -3.7037   21.5088 C   0  0  0  0  0  0  0  0  0  0  0  0
   -0.7836  -11.4143   14.4679 C   0  0  0  0  0  0  0  0  0  0  0  0
   10.7695   -3.9920   25.1293 C   0  0  0  0  0  0  0  0  0  0  0  0
    3.1947   -9.5301   17.0468 N   0  0  0  0  0  0  0  0  0  0  0  0
   10.6335   -4.4916   19.0971 C   0  0  0  0  0  0  0  0  0  0  0  0
   -0.5015  -11.4929   15.7696 C   0  0  0  0  0  0  0  0  0  0  0  0
    3.9625   -7.3863   15.4379 C   0  0  0  0  0  0  0  0  0  0  0  0
   10.7272   -3.6380   16.9271 C   0  0  0  0  0  0  0  0  0  0  0  0
   11.0171   -3.5266   18.2557 C   0  0  0  0  0  0  0  0  0  0  0  0
    9.9191   -5.5750   18.7159 C   0  0  0  0  0  0  0  0  0  0  0  0
    6.4898   -7.7391   16.5323 N   0  0  0  0  0  0  0  0  0  0  0  0
    8.4973   -6.6019   16.8912 C   0  0  0  0  0  0  0  0  0  0  0  0
    0.7850   -9.6366   14.1643 C   0  0  0  0  0  0  0  0  0  0  0  0
    6.7416   -5.6959   15.4247 O   0  0  0  0  0  0  0  0  0  0  0  0
    7.1903   -6.5080   16.2038 C   0  0  0  0  0  0  0  0  0  0  0  0
   11.1734   -4.4392   20.4313 C   0  0  0  0  0  0  0  0  0  0  0  0
    9.4507   -5.6104   17.3817 C   0  0  0  0  0  0  0  0  0  0  0  0
    5.0220   -8.3046   16.5157 C   0  0  0  0  0  0  0  0  0  0  0  0
    9.6288   -2.1157   24.0776 C   0  0  0  0  0  0  0  0  0  0  0  0
    9.8310   -4.6318   16.5080 C   0  0  0  0  0  0  0  0  0  0  0  0
    4.4106   -9.1369   17.1813 C   0  0  0  0  0  0  0  0  0  0  0  0
    2.7676   -7.9257   15.2780 N   0  0  0  0  0  0  0  0  0  0  0  0
   -0.1817  -10.5155   13.6471 C   0  0  0  0  0  0  0  0  0  0  0  0
  1 18  4  0
  1 29  4  0
  2  8  1  0
  2 23  1  0
  3  7  1  0
  3 15  4  0
  3 33  4  0
  4  6  4  0
  4 14  4  0
  5 10  1  0
  5 12  1  0
  6  9  4  0
  7 11  4  0
  7 24  4  0
  8 22  1  0
  9 30  4  0
 10 14  4  0
 10 30  4  0
 11 17  4  0
 12 27  1  0
 13 17  4  0
 13 34  4  0
 15 32  4  0
 16 20  4  0
 16 21  4  0
 16 27  1  0
 18 33  4  0
 19 20  4  0
 19 31  4  0
 21 28  4  0
 22 26  1  0
 23 26  1  0
 23 28  1  0
 24 34  4  0
 25 26  2  0
 28 31  4  0
 29 32  4  0
M  END
$$$$

 Created by Python create_sdf_string function

 34 64  0  0  0  0  0  0  0  0999 V2000
    8.9424   -8.5411   17.1035 C   0  0  0  0  0  0  0  0  0  0  0  0
    2.3456   -9.0909   15.7535 C   0  0  0  0  0  0  0  0  0  0  0  0
   10.1253   -3.6501   26.0771 C   0  0  0  0  0  0  0  0  0  0  0  0
   10.6871   -3.4973   23.1492 C   0  0  0  0  0  0  0  0  0  0  0  0
    9.5346   -2.5259   26.4793 C   0  0  0  0  0  0  0  0  0  0  0  0
    7.8736   -8.8595   17.0455 C   0  0  0  0  0  0  0  0  0  0  0  0
    9.1468   -1.9274   25.4548 C   0  0  0  0  0  0  0  0  0  0  0  0
   10.1956   -3.0583   24.0820 C   0  0  0  0  0  0  0  0  0  0  0  0
    0.5839  -10.6255   16.2266 C   0  0  0  0  0  0  0  0  0  0  0  0
   10.5746   -3.6898   21.2362 C   0  0  0  0  0  0  0  0  0  0  0  0
   -0.6744  -10.8648   14.7889 C   0  0  0  0  0  0  0  0  0  0  0  0
   10.8859   -3.8705   25.2990 C   0  0  0  0  0  0  0  0  0  0  0  0
    3.4463   -9.4648   16.8893 N   0  0  0  0  0  0  0  0  0  0  0  0
   10.4521   -4.7520   19.3147 C   0  0  0  0  0  0  0  0  0  0  0  0
   -0.5420  -11.5520   15.7766 C   0  0  0  0  0  0  0  0  0  0  0  0
   10.8820   -3.4068   18.1651 C   0  0  0  0  0  0  0  0  0  0  0  0
   10.0339   -5.3011   18.6783 C   0  0  0  0  0  0  0  0  0  0  0  0
    6.3377   -7.9209   15.8307 N   0  0  0  0  0  0  0  0  0  0  0  0
    0.6302  -10.1072   13.9826 C   0  0  0  0  0  0  0  0  0  0  0  0
    6.4736   -5.9403   15.4973 O   0  0  0  0  0  0  0  0  0  0  0  0
    6.9592   -6.3937   16.1688 C   0  0  0  0  0  0  0  0  0  0  0  0
   11.3582   -4.8575   19.6477 C   0  0  0  0  0  0  0  0  0  0  0  0
    9.4851   -5.5222   17.2934 C   0  0  0  0  0  0  0  0  0  0  0  0
    5.0710   -8.0025   17.2503 C   0  0  0  0  0  0  0  0  0  0  0  0
    9.4201   -2.2460   24.2367 C   0  0  0  0  0  0  0  0  0  0  0  0
   10.0467   -4.5559   16.6086 C   0  0  0  0  0  0  0  0  0  0  0  0
    4.8869   -9.2783   17.1082 C   0  0  0  0  0  0  0  0  0  0  0  0
   -0.0994  -10.4105   13.6736 C   0  0  0  0  0  0  0  0  0  0  0  0
    5.4003   -7.5538   16.1845 He  0  0  0  0  0  0  0  0  0  0  0  0
    1.1820   -9.7702   15.3604 He  0  0  0  0  0  0  0  0  0  0  0  0
    3.0686   -7.0651   15.6791 He  0  0  0  0  0  0  0  0  0  0  0  0
   10.8708   -3.6830   16.7647 He  0  0  0  0  0  0  0  0  0  0  0  0
    8.2599   -6.9121   16.8683 He  0  0  0  0  0  0  0  0  0  0  0  0
    2.4518   -7.6758   15.3595 He  0  0  0  0  0  0  0  0  0  0  0  0
  1  6  1  0
  1 21  1  0
  2  3  2  0
  2 12  4  0
  2 13  4  0
  2 17  1  0
  2 19  2  0
  2 28  3  0
  3  5  4  0
  3 22  4  0
  4  5  1  0
  4  8  1  0
  4  9  3  0
  4 10  1  0
  4 13  2  0
  4 15  4  0
  4 21  2  0
  5  7  4  0
  5  9  2  0
  5 18  4  0
  6 12  1  0
  6 16  3  0
  6 18  1  0
  7 25  4  0
  8 12  4  0
  8 15  1  0
  8 22  2  0
  8 24  2  0
  8 25  2  0
  8 26  2  0
  9 11  1  0
  9 15  4  0
  9 25  1  0
 10 20  1  0
 10 22  1  0
 11 15  4  0
 11 25  3  0
 11 28  4  0
 12 19  3  0
 12 22  2  0
 13 18  2  0
 13 20  3  0
 13 22  1  0
 13 27  4  0
 14 16  4  0
 14 17  4  0
 14 20  1  0
 14 22  1  0
 16 18  3  0
 16 27  3  0
 16 28  3  0
 17 20  4  0
 17 23  4  0
 18 19  4  0
 18 21  1  0
 18 22  2  0
 18 24  1  0
 19 28  3  0
 20 21  4  0
 21 25  4  0
 21 27  4  0
 23 26  2  0
 24 27  4  0
 25 28  1  0
M  END
$$$$

 Created by Python create_sdf_string function

 34 38  0  0  0  0  0  0  0  0999 V2000
    4.5392   -7.3490   16.0735 C   0  0  0  0  0  0  0  0  0  0  0  0
    8.8446   -8.0691   17.1284 C   0  0  0  0  0  0  0  0  0  0  0  0
    2.4205   -9.0709   15.9126 C   0  0  0  0  0  0  0  0  0  0  0  0
   10.2828   -3.6438   26.3049 C   0  0  0  0  0  0  0  0  0  0  0  0
   11.0763   -3.6636   22.7465 C   0  0  0  0  0  0  0  0  0  0  0  0
    9.3993   -2.5791   26.4641 C   0  0  0  0  0  0  0  0  0  0  0  0
    1.2705   -9.8241   15.4585 C   0  0  0  0  0  0  0  0  0  0  0  0
    7.6941   -8.8183   16.9344 C   0  0  0  0  0  0  0  0  0  0  0  0
    9.0832   -1.8065   25.3402 C   0  0  0  0  0  0  0  0  0  0  0  0
   10.4211   -3.2379   24.0220 C   0  0  0  0  0  0  0  0  0  0  0  0
    0.5760  -10.6549   16.3202 C   0  0  0  0  0  0  0  0  0  0  0  0
   10.4929   -3.6985   21.4718 C   0  0  0  0  0  0  0  0  0  0  0  0
   -0.9073  -11.2771   14.5906 C   0  0  0  0  0  0  0  0  0  0  0  0
   10.7499   -4.0340   25.0874 C   0  0  0  0  0  0  0  0  0  0  0  0
    3.3682   -9.5786   16.7536 N   0  0  0  0  0  0  0  0  0  0  0  0
   10.6860   -4.5115   19.0350 C   0  0  0  0  0  0  0  0  0  0  0  0
   -0.5679  -11.3555   15.8749 C   0  0  0  0  0  0  0  0  0  0  0  0
    3.5972   -7.0090   15.5282 C   0  0  0  0  0  0  0  0  0  0  0  0
   10.6746   -3.5871   16.8868 C   0  0  0  0  0  0  0  0  0  0  0  0
   11.0364   -3.5179   18.2059 C   0  0  0  0  0  0  0  0  0  0  0  0
    9.8748   -5.5018   18.6468 C   0  0  0  0  0  0  0  0  0  0  0  0
    6.6014   -7.8622   16.5666 N   0  0  0  0  0  0  0  0  0  0  0  0
    8.5633   -6.6455   16.7182 C   0  0  0  0  0  0  0  0  0  0  0  0
    0.8262   -9.7176   14.1363 C   0  0  0  0  0  0  0  0  0  0  0  0
    6.6986   -5.7397   15.4364 O   0  0  0  0  0  0  0  0  0  0  0  0
    7.2074   -6.5715   16.1665 C   0  0  0  0  0  0  0  0  0  0  0  0
   11.2175   -4.5200   20.3735 C   0  0  0  0  0  0  0  0  0  0  0  0
    9.4626   -5.5700   17.2735 C   0  0  0  0  0  0  0  0  0  0  0  0
    5.3096   -8.1504   16.5302 C   0  0  0  0  0  0  0  0  0  0  0  0
    9.5988   -2.0910   24.1228 C   0  0  0  0  0  0  0  0  0  0  0  0
    9.8650   -4.6110   16.4199 C   0  0  0  0  0  0  0  0  0  0  0  0
    4.5979   -9.1576   16.9229 C   0  0  0  0  0  0  0  0  0  0  0  0
    2.5174   -7.7440   15.3950 C   0  0  0  0  0  0  0  0  0  0  0  0
   -0.2590  -10.4956   13.6868 C   0  0  0  0  0  0  0  0  0  0  0  0
  1 18  4  0
  1 29  4  0
  2  8  1  0
  2 23  1  0
  3  7  1  0
  3 15  4  0
  3 33  4  0
  4  6  4  0
  4 14  4  0
  5 10  1  0
  5 12  1  0
  6  9  4  0
  7 11  4  0
  7 24  4  0
  8 22  1  0
  9 30  4  0
 10 14  4  0
 10 30  4  0
 11 17  4  0
 12 27  1  0
 13 17  4  0
 13 34  4  0
 15 32  4  0
 16 20  4  0
 16 21  4  0
 16 27  1  0
 18 33  4  0
 19 20  4  0
 19 31  4  0
 21 28  4  0
 22 26  1  0
 22 29  1  0
 23 26  1  0
 23 28  1  0
 24 34  4  0
 25 26  2  0
 28 31  4  0
 29 32  4  0
M  END
$$$$

 Created by Python create_sdf_string function

 34 84  0  0  0  0  0  0  0  0999 V2000
    4.2396   -7.2893   16.0063 C   0  0  0  0  0  0  0  0  0  0  0  0
    8.8143   -8.1354   16.9500 C   0  0  0  0  0  0  0  0  0  0  0  0
    2.1198   -9.0668   16.2947 N   0  0  0  0  0  0  0  0  0  0  0  0
   10.3446   -3.6227   26.2210 C   0  0  0  0  0  0  0  0  0  0  0  0
    9.4809   -2.6275   26.4278 C   0  0  0  0  0  0  0  0  0  0  0  0
    1.2735   -9.8817   15.2316 C   0  0  0  0  0  0  0  0  0  0  0  0
    7.6727   -8.5910   16.9564 C   0  0  0  0  0  0  0  0  0  0  0  0
    9.2056   -2.0233   25.4232 C   0  0  0  0  0  0  0  0  0  0  0  0
   10.4005   -3.0774   24.3323 C   0  0  0  0  0  0  0  0  0  0  0  0
    0.8294  -10.5220   16.1410 C   0  0  0  0  0  0  0  0  0  0  0  0
   10.7213   -3.7650   21.4327 C   0  0  0  0  0  0  0  0  0  0  0  0
   -0.8809  -11.3163   13.9290 C   0  0  0  0  0  0  0  0  0  0  0  0
    2.9090   -9.4409   15.9211 N   0  0  0  0  0  0  0  0  0  0  0  0
   10.8337   -4.6429   18.5418 P   0  0  0  0  0  0  0  0  0  0  0  0
   -0.5164  -11.7070   15.6630 C   0  0  0  0  0  0  0  0  0  0  0  0
   10.8033   -3.7435   16.9854 C   0  0  0  0  0  0  0  0  0  0  0  0
   11.3324   -3.4382   18.1267 C   0  0  0  0  0  0  0  0  0  0  0  0
    9.6666   -5.5280   18.5401 C   0  0  0  0  0  0  0  0  0  0  0  0
    6.5315   -8.4188   16.7746 N   0  0  0  0  0  0  0  0  0  0  0  0
    8.1890   -7.1639   16.7689 C   0  0  0  0  0  0  0  0  0  0  0  0
    0.8287  -10.0350   14.1503 C   0  0  0  0  0  0  0  0  0  0  0  0
    6.6157   -5.2875   15.2626 O   0  0  0  0  0  0  0  0  0  0  0  0
    7.6373   -6.8637   16.4414 C   0  0  0  0  0  0  0  0  0  0  0  0
   10.9668   -4.4428   20.3330 C   0  0  0  0  0  0  0  0  0  0  0  0
    9.6468   -5.5108   17.1083 C   0  0  0  0  0  0  0  0  0  0  0  0
    5.6053   -8.1645   16.9387 C   0  0  0  0  0  0  0  0  0  0  0  0
    9.4325   -1.8902   24.0898 C   0  0  0  0  0  0  0  0  0  0  0  0
    9.7051   -4.6922   16.5201 C   0  0  0  0  0  0  0  0  0  0  0  0
    4.4436   -8.9468   16.9254 C   0  0  0  0  0  0  0  0  0  0  0  0
    2.3950   -8.0033   15.9212 C   0  0  0  0  0  0  0  0  0  0  0  0
   -0.2549  -10.6591   13.4964 C   0  0  0  0  0  0  0  0  0  0  0  0
   10.4508   -3.6390   22.4016 He  0  0  0  0  0  0  0  0  0  0  0  0
   10.8606   -3.9540   24.9464 He  0  0  0  0  0  0  0  0  0  0  0  0
    2.9135   -7.6205   15.9980 He  0  0  0  0  0  0  0  0  0  0  0  0
  1  2  4  0
  1  3  3  0
  1  6  1  0
  1 14  2  0
  1 26  4  0
  2  7  1  0
  2 16  3  0
  2 18  1  0
  2 20  1  0
  3  6  1  0
  3  8  1  0
  3 14  1  0
  3 19  2  0
  3 20  4  0
  3 23  1  0
  3 24  1  0
  3 30  4  0
  3 31  3  0
  4  6  3  0
  4 13  1  0
  4 16  4  0
  4 22  1  0
  4 29  4  0
  5  8  4  0
  5 17  2  0
  5 29  1  0
  6 10  4  0
  6 13  4  0
  6 21  4  0
  6 22  2  0
  6 27  4  0
  6 29  2  0
  7 13  4  0
  7 15  1  0
  7 19  4  0
  7 24  2  0
  7 25  1  0
  7 26  2  0
  8 10  1  0
  8 15  1  0
  8 19  2  0
  8 27  4  0
  9 11  3  0
  9 13  1  0
  9 27  4  0
 10 23  1  0
 11 15  4  0
 11 24  1  0
 11 26  1  0
 12 15  4  0
 12 31  4  0
 13 17  1  0
 13 19  2  0
 13 28  4  0
 14 15  1  0
 14 16  1  0
 14 18  4  0
 14 19  3  0
 14 24  1  0
 15 18  1  0
 15 24  4  0
 15 26  3  0
 16 17  4  0
 16 21  2  0
 16 28  4  0
 18 19  4  0
 18 21  1  0
 18 25  4  0
 19 23  1  0
 19 25  4  0
 20 23  4  0
 20 25  4  0
 20 26  4  0
 20 28  1  0
 20 30  4  0
 21 25  3  0
 21 26  2  0
 21 31  4  0
 22 23  2  0
 23 30  2  0
 24 29  3  0
 25 28  4  0
 26 30  1  0
 28 29  4  0
M  END
$$$$

 Created by Python create_sdf_string function

 34 38  0  0  0  0  0  0  0  0999 V2000
    4.3647   -7.1085   16.0800 C   0  0  0  0  0  0  0  0  0  0  0  0
    8.8317   -8.0946   17.1955 C   0  0  0  0  0  0  0  0  0  0  0  0
    2.1312   -9.1929   15.9073 N   0  0  0  0  0  0  0  0  0  0  0  0
   10.3410   -3.6970   26.1795 C   0  0  0  0  0  0  0  0  0  0  0  0
   10.8737   -3.5507   22.5187 C   0  0  0  0  0  0  0  0  0  0  0  0
    9.4848   -2.6318   26.4289 C   0  0  0  0  0  0  0  0  0  0  0  0
    1.0726   -9.9427   15.3641 C   0  0  0  0  0  0  0  0  0  0  0  0
    7.5648   -8.7868   17.0579 C   0  0  0  0  0  0  0  0  0  0  0  0
    9.1310   -1.8037   25.3778 C   0  0  0  0  0  0  0  0  0  0  0  0
   10.3600   -3.1713   23.9249 C   0  0  0  0  0  0  0  0  0  0  0  0
    0.3368  -10.8014   16.1553 C   0  0  0  0  0  0  0  0  0  0  0  0
   10.5223   -3.7108   21.3521 C   0  0  0  0  0  0  0  0  0  0  0  0
   -0.9026  -11.5075   14.2136 C   0  0  0  0  0  0  0  0  0  0  0  0
   10.7769   -3.9992   24.9181 C   0  0  0  0  0  0  0  0  0  0  0  0
    3.2232   -9.5877   16.5432 N   0  0  0  0  0  0  0  0  0  0  0  0
   10.6823   -4.5565   18.9537 C   0  0  0  0  0  0  0  0  0  0  0  0
   -0.6548  -11.6010   15.5297 C   0  0  0  0  0  0  0  0  0  0  0  0
    3.0726   -7.1922   15.9154 C   0  0  0  0  0  0  0  0  0  0  0  0
   10.6614   -3.6481   16.7667 C   0  0  0  0  0  0  0  0  0  0  0  0
   11.0672   -3.5642   18.0991 C   0  0  0  0  0  0  0  0  0  0  0  0
    9.8896   -5.5683   18.5873 C   0  0  0  0  0  0  0  0  0  0  0  0
    6.6354   -7.8412   16.5999 N   0  0  0  0  0  0  0  0  0  0  0  0
    8.5868   -6.6917   16.8526 C   0  0  0  0  0  0  0  0  0  0  0  0
    0.8209   -9.8452   14.0261 C   0  0  0  0  0  0  0  0  0  0  0  0
    6.8380   -5.6433   15.4846 O   0  0  0  0  0  0  0  0  0  0  0  0
    7.2789   -6.6068   16.2786 C   0  0  0  0  0  0  0  0  0  0  0  0
   11.1684   -4.5678   20.3160 C   0  0  0  0  0  0  0  0  0  0  0  0
    9.4215   -5.6719   17.2419 C   0  0  0  0  0  0  0  0  0  0  0  0
    5.2450   -8.0529   16.4791 C   0  0  0  0  0  0  0  0  0  0  0  0
    9.5687   -2.0508   24.1083 C   0  0  0  0  0  0  0  0  0  0  0  0
    9.8019   -4.6516   16.3561 C   0  0  0  0  0  0  0  0  0  0  0  0
    4.5250   -9.2596   16.7106 C   0  0  0  0  0  0  0  0  0  0  0  0
    2.4066   -8.0282   15.8936 C   0  0  0  0  0  0  0  0  0  0  0  0
   -0.1748  -10.6896   13.4409 C   0  0  0  0  0  0  0  0  0  0  0  0
  1 18  4  0
  1 29  4  0
  2  8  1  0
  2 23  1  0
  3  7  1  0
  3 15  4  0
  3 33  4  0
  4  6  4  0
  4 14  4  0
  5 10  1  0
  5 12  1  0
  6  9  4  0
  7 11  4  0
  7 24  4  0
  8 22  4  0
  9 30  4  0
 10 14  4  0
 10 30  4  0
 11 17  4  0
 12 27  1  0
 13 17  4  0
 13 34  4  0
 15 32  4  0
 16 20  4  0
 16 21  4  0
 16 27  1  0
 18 33  4  0
 19 20  4  0
 19 31  4  0
 21 28  4  0
 22 26  1  0
 22 29  1  0
 23 26  4  0
 23 28  1  0
 24 34  4  0
 25 26  2  0
 28 31  4  0
 29 32  4  0
M  END
$$$$

 Created by Python create_sdf_string function

 34 65  0  0  0  0  0  0  0  0999 V2000
    3.8606   -7.4123   15.8886 C   0  0  0  0  0  0  0  0  0  0  0  0
    8.5531   -7.6520   17.2224 C   0  0  0  0  0  0  0  0  0  0  0  0
    2.2536   -9.0839   16.2874 N   0  0  0  0  0  0  0  0  0  0  0  0
   10.5500   -3.6760   26.2881 C   0  0  0  0  0  0  0  0  0  0  0  0
   10.7331   -4.1753   22.8337 Cl  0  0  0  0  0  0  0  0  0  0  0  0
    9.5626   -2.4779   26.2586 C   0  0  0  0  0  0  0  0  0  0  0  0
    1.1356   -9.8052   15.3439 C   0  0  0  0  0  0  0  0  0  0  0  0
    7.4577   -8.7340   17.1962 C   0  0  0  0  0  0  0  0  0  0  0  0
    9.0314   -2.0173   25.5360 C   0  0  0  0  0  0  0  0  0  0  0  0
    0.4385  -11.2130   16.1163 C   0  0  0  0  0  0  0  0  0  0  0  0
   10.7222   -3.8135   21.4313 C   0  0  0  0  0  0  0  0  0  0  0  0
   -0.4123  -11.2789   14.0591 C   0  0  0  0  0  0  0  0  0  0  0  0
   10.7187   -3.6787   25.2432 C   0  0  0  0  0  0  0  0  0  0  0  0
   11.3227   -5.0331   18.9293 C   0  0  0  0  0  0  0  0  0  0  0  0
   -0.6837  -11.3085   15.3376 C   0  0  0  0  0  0  0  0  0  0  0  0
    3.1966   -6.7218   16.3598 C   0  0  0  0  0  0  0  0  0  0  0  0
   10.7346   -3.6470   16.8644 C   0  0  0  0  0  0  0  0  0  0  0  0
   11.0177   -3.4034   17.7767 C   0  0  0  0  0  0  0  0  0  0  0  0
    9.9193   -5.3033   18.5765 C   0  0  0  0  0  0  0  0  0  0  0  0
    6.8267   -7.5931   16.3606 N   0  0  0  0  0  0  0  0  0  0  0  0
    8.5788   -6.6925   16.9413 C   0  0  0  0  0  0  0  0  0  0  0  0
    0.7074  -10.1415   13.8729 C   0  0  0  0  0  0  0  0  0  0  0  0
    7.2148   -6.8440   16.2244 C   0  0  0  0  0  0  0  0  0  0  0  0
   11.1524   -4.3522   20.2587 C   0  0  0  0  0  0  0  0  0  0  0  0
    9.3383   -5.5836   17.2474 C   0  0  0  0  0  0  0  0  0  0  0  0
    5.4889   -8.0964   16.1505 C   0  0  0  0  0  0  0  0  0  0  0  0
    9.5677   -2.3266   23.9556 C   0  0  0  0  0  0  0  0  0  0  0  0
   10.1423   -4.7391   16.5678 C   0  0  0  0  0  0  0  0  0  0  0  0
    4.0867   -8.7410   16.7031 P   0  0  0  0  0  0  0  0  0  0  0  0
    3.1453   -8.5065   16.3054 Cl  0  0  0  0  0  0  0  0  0  0  0  0
   -0.1877  -10.6142   13.3956 O   0  0  0  0  0  0  0  0  0  0  0  0
   10.3483   -3.1588   23.8529 He  0  0  0  0  0  0  0  0  0  0  0  0
    3.0441   -9.7905   16.5790 He  0  0  0  0  0  0  0  0  0  0  0  0
    7.3718   -5.4519   15.3573 He  0  0  0  0  0  0  0  0  0  0  0  0
  1  5  1  0
  1 26  4  0
  2  4  1  0
  2  8  1  0
  2  9  4  0
  2 21  1  0
  2 23  2  0
  3  7  1  0
  3 11  4  0
  3 27  2  0
  3 31  4  0
  4  6  4  0
  4 13  4  0
  4 27  1  0
  5 11  1  0
  5 21  1  0
  5 25  3  0
  5 28  2  0
  6 20  4  0
  6 28  2  0
  7 10  4  0
  7 14  3  0
  7 22  4  0
  7 30  3  0
  8 20  4  0
  9 16  3  0
  9 26  1  0
  9 27  4  0
 10 11  2  0
 10 15  4  0
 10 22  2  0
 10 31  1  0
 11 15  4  0
 11 24  1  0
 11 30  3  0
 12 14  2  0
 12 15  4  0
 12 16  4  0
 12 26  4  0
 12 28  2  0
 12 29  1  0
 12 31  4  0
 13 14  3  0
 13 29  3  0
 14 18  4  0
 14 19  3  0
 14 24  1  0
 14 27  2  0
 15 19  2  0
 16 20  4  0
 16 30  4  0
 17 18  4  0
 17 28  4  0
 19 24  3  0
 19 25  4  0
 20 23  1  0
 20 26  2  0
 21 23  4  0
 21 25  1  0
 22 23  3  0
 22 31  4  0
 23 30  4  0
 24 29  2  0
 25 28  3  0
 26 27  1  0
M  END
$$$$

 Created by Python create_sdf_string function

 34 38  0  0  0  0  0  0  0  0999 V2000
    4.3432   -7.1012   15.9678 C   0  0  0  0  0  0  0  0  0  0  0  0
    8.7042   -7.9800   17.4882 C   0  0  0  0  0  0  0  0  0  0  0  0
    2.0312   -9.1325   16.0107 N   0  0  0  0  0  0  0  0  0  0  0  0
   10.4474   -3.5339   26.3216 C   0  0  0  0  0  0  0  0  0  0  0  0
   10.9697   -3.9710   22.6812 C   0  0  0  0  0  0  0  0  0  0  0  0
    9.5104   -2.5136   26.3757 C   0  0  0  0  0  0  0  0  0  0  0  0
    1.0568   -9.9278   15.4241 C   0  0  0  0  0  0  0  0  0  0  0  0
    7.4397   -8.6592   17.1224 C   0  0  0  0  0  0  0  0  0  0  0  0
    9.1162   -1.8812   25.1915 C   0  0  0  0  0  0  0  0  0  0  0  0
   10.4565   -3.3951   23.9614 C   0  0  0  0  0  0  0  0  0  0  0  0
    0.2917  -10.8481   16.1291 C   0  0  0  0  0  0  0  0  0  0  0  0
   10.5649   -3.7308   21.4105 C   0  0  0  0  0  0  0  0  0  0  0  0
   -0.8070  -11.4315   14.0835 C   0  0  0  0  0  0  0  0  0  0  0  0
   10.9189   -4.0122   25.1139 C   0  0  0  0  0  0  0  0  0  0  0  0
    3.2617   -9.6216   16.6424 C   0  0  0  0  0  0  0  0  0  0  0  0
   10.8059   -4.4702   18.9816 C   0  0  0  0  0  0  0  0  0  0  0  0
   -0.6439  -11.6221   15.4143 C   0  0  0  0  0  0  0  0  0  0  0  0
    2.9944   -7.1765   15.9369 C   0  0  0  0  0  0  0  0  0  0  0  0
   10.8224   -3.6676   16.7998 C   0  0  0  0  0  0  0  0  0  0  0  0
   11.1962   -3.5449   18.0970 C   0  0  0  0  0  0  0  0  0  0  0  0
    9.9974   -5.5284   18.6508 C   0  0  0  0  0  0  0  0  0  0  0  0
    6.6104   -7.7160   16.4663 N   0  0  0  0  0  0  0  0  0  0  0  0
    8.6218   -6.6404   16.9429 C   0  0  0  0  0  0  0  0  0  0  0  0
    0.8735   -9.7921   14.0671 C   0  0  0  0  0  0  0  0  0  0  0  0
    7.0519   -5.6083   15.3562 O   0  0  0  0  0  0  0  0  0  0  0  0
    7.3670   -6.5679   16.1853 C   0  0  0  0  0  0  0  0  0  0  0  0
   11.3928   -4.4353   20.3013 C   0  0  0  0  0  0  0  0  0  0  0  0
    9.5372   -5.6478   17.3167 C   0  0  0  0  0  0  0  0  0  0  0  0
    5.2532   -7.9654   16.3657 C   0  0  0  0  0  0  0  0  0  0  0  0
    9.6012   -2.3042   23.9930 C   0  0  0  0  0  0  0  0  0  0  0  0
    9.9285   -4.6554   16.3992 C   0  0  0  0  0  0  0  0  0  0  0  0
    4.5756   -9.1521   16.6796 C   0  0  0  0  0  0  0  0  0  0  0  0
    2.5670   -8.3786   16.0949 C   0  0  0  0  0  0  0  0  0  0  0  0
   -0.0571  -10.5808   13.3799 C   0  0  0  0  0  0  0  0  0  0  0  0
  1 18  4  0
  1 29  4  0
  2  8  1  0
  2 23  1  0
  3  7  1  0
  3 33  1  0
  4  6  4  0
  4 14  4  0
  5 10  1  0
  5 12  1  0
  6  9  4  0
  7 11  4  0
  7 24  4  0
  8 22  1  0
  9 30  4  0
 10 14  4  0
 10 30  4  0
 11 17  4  0
 12 27  1  0
 13 17  4  0
 13 34  4  0
 15 32  4  0
 15 33  4  0
 16 20  4  0
 16 21  4  0
 16 27  1  0
 18 33  4  0
 19 20  4  0
 19 31  4  0
 21 28  4  0
 22 26  1  0
 22 29  1  0
 23 26  1  0
 23 28  1  0
 24 34  4  0
 25 26  2  0
 28 31  4  0
 29 32  4  0
M  END
$$$$

 Created by Python create_sdf_string function

 34 73  0  0  0  0  0  0  0  0999 V2000
    3.9814   -7.4713   15.8293 C   0  0  0  0  0  0  0  0  0  0  0  0
    8.5031   -7.4175   17.6219 C   0  0  0  0  0  0  0  0  0  0  0  0
    1.7460   -8.9719   16.3215 N   0  0  0  0  0  0  0  0  0  0  0  0
   10.7360   -3.6592   26.1335 C   0  0  0  0  0  0  0  0  0  0  0  0
   10.6453   -3.2905   22.3755 N   0  0  0  0  0  0  0  0  0  0  0  0
    9.4955   -2.4262   26.3408 C   0  0  0  0  0  0  0  0  0  0  0  0
    1.2593   -9.9894   15.3676 C   0  0  0  0  0  0  0  0  0  0  0  0
    7.1669   -8.4839   17.0734 C   0  0  0  0  0  0  0  0  0  0  0  0
    9.0610   -1.8595   25.2166 C   0  0  0  0  0  0  0  0  0  0  0  0
   10.2095   -3.4501   24.1172 C   0  0  0  0  0  0  0  0  0  0  0  0
    0.3786  -10.9026   16.2955 C   0  0  0  0  0  0  0  0  0  0  0  0
   10.4207   -3.8357   21.3940 C   0  0  0  0  0  0  0  0  0  0  0  0
   -0.9826  -11.3529   14.1953 C   0  0  0  0  0  0  0  0  0  0  0  0
   10.9939   -4.0300   25.1076 C   0  0  0  0  0  0  0  0  0  0  0  0
    3.4320   -9.0436   16.5742 C   0  0  0  0  0  0  0  0  0  0  0  0
   11.0135   -4.4931   19.1077 C   0  0  0  0  0  0  0  0  0  0  0  0
   -0.5501  -11.6766   15.4769 C   0  0  0  0  0  0  0  0  0  0  0  0
    2.9835   -7.0815   16.0386 F   0  0  0  0  0  0  0  0  0  0  0  0
   10.7420   -3.6042   16.8061 I   0  0  0  0  0  0  0  0  0  0  0  0
   11.3538   -3.5154   18.1620 C   0  0  0  0  0  0  0  0  0  0  0  0
    9.8664   -5.1775   18.9836 C   0  0  0  0  0  0  0  0  0  0  0  0
    6.5781   -7.5073   16.0733 N   0  0  0  0  0  0  0  0  0  0  0  0
    8.9297   -7.0402   17.0895 C   0  0  0  0  0  0  0  0  0  0  0  0
    0.9009  -10.1638   14.0728 C   0  0  0  0  0  0  0  0  0  0  0  0
    6.7825   -5.6949   15.3262 N   0  0  0  0  0  0  0  0  0  0  0  0
    7.2696   -6.4052   16.4347 C   0  0  0  0  0  0  0  0  0  0  0  0
   11.4239   -4.0534   20.2183 C   0  0  0  0  0  0  0  0  0  0  0  0
    9.5677   -5.7471   17.4659 C   0  0  0  0  0  0  0  0  0  0  0  0
    5.2847   -8.1208   16.0590 C   0  0  0  0  0  0  0  0  0  0  0  0
    9.6414   -2.3364   23.9598 C   0  0  0  0  0  0  0  0  0  0  0  0
    9.9269   -4.6714   16.7050 C   0  0  0  0  0  0  0  0  0  0  0  0
    4.4804   -9.1759   16.3123 O   0  0  0  0  0  0  0  0  0  0  0  0
    0.0518  -10.5082   13.6734 C   0  0  0  0  0  0  0  0  0  0  0  0
    2.5967   -7.9053   16.3300 He  0  0  0  0  0  0  0  0  0  0  0  0
  1 18  4  0
  1 22  2  0
  1 31  3  0
  2  8  1  0
  2 20  2  0
  2 23  1  0
  2 31  2  0
  3  7  1  0
  3 12  1  0
  3 13  2  0
  3 16  1  0
  3 18  3  0
  3 27  4  0
  4  6  4  0
  4 10  4  0
  4 18  1  0
  4 27  2  0
  5  9  3  0
  5 10  1  0
  5 11  3  0
  5 12  1  0
  5 23  4  0
  6  9  4  0
  6 16  4  0
  6 29  1  0
  7 11  4  0
  7 19  3  0
  7 24  4  0
  7 29  3  0
  8 30  1  0
  9 12  4  0
  9 22  4  0
  9 29  3  0
  9 30  4  0
 10 14  4  0
 10 28  3  0
 10 30  4  0
 11 17  4  0
 12 27  2  0
 13 17  4  0
 13 33  4  0
 14 15  3  0
 14 17  4  0
 14 18  2  0
 15 20  1  0
 15 22  1  0
 15 24  3  0
 16 20  4  0
 16 21  4  0
 16 22  2  0
 16 27  1  0
 17 22  3  0
 19 20  4  0
 19 23  1  0
 19 31  4  0
 19 32  2  0
 21 28  4  0
 22 26  1  0
 22 28  4  0
 22 29  1  0
 23 26  1  0
 24 26  4  0
 24 29  2  0
 24 33  4  0
 25 26  4  0
 25 27  2  0
 25 32  4  0
 25 33  3  0
 26 27  2  0
 26 30  1  0
 28 31  4  0
 29 30  2  0
 29 32  4  0
M  END
$$$$

 Created by Python create_sdf_string function

 34 38  0  0  0  0  0  0  0  0999 V2000
    4.3052   -6.9122   15.7887 C   0  0  0  0  0  0  0  0  0  0  0  0
    8.5110   -7.8193   17.7181 C   0  0  0  0  0  0  0  0  0  0  0  0
    1.3206   -8.7918   16.2912 C   0  0  0  0  0  0  0  0  0  0  0  0
   10.5137   -3.5908   26.2193 C   0  0  0  0  0  0  0  0  0  0  0  0
   11.0518   -3.5941   22.6225 N   0  0  0  0  0  0  0  0  0  0  0  0
    9.6334   -2.5525   26.4217 C   0  0  0  0  0  0  0  0  0  0  0  0
    0.8381   -9.8529   15.5780 C   0  0  0  0  0  0  0  0  0  0  0  0
    7.3643   -8.5055   17.1622 C   0  0  0  0  0  0  0  0  0  0  0  0
    9.1159   -1.8500   25.3242 C   0  0  0  0  0  0  0  0  0  0  0  0
   10.4561   -3.2411   23.8929 C   0  0  0  0  0  0  0  0  0  0  0  0
    0.2098  -10.8704   16.2507 C   0  0  0  0  0  0  0  0  0  0  0  0
   10.4853   -3.9039   21.4754 C   0  0  0  0  0  0  0  0  0  0  0  0
   -0.8174  -11.4833   14.2060 C   0  0  0  0  0  0  0  0  0  0  0  0
   10.9151   -3.9604   24.9626 C   0  0  0  0  0  0  0  0  0  0  0  0
    3.6104   -9.3760   16.6043 C   0  0  0  0  0  0  0  0  0  0  0  0
   10.8568   -4.2993   19.0267 C   0  0  0  0  0  0  0  0  0  0  0  0
   -0.6839  -11.6371   15.5442 C   0  0  0  0  0  0  0  0  0  0  0  0
    2.9907   -7.1884   15.8529 C   0  0  0  0  0  0  0  0  0  0  0  0
   10.8103   -3.6467   16.7797 C   0  0  0  0  0  0  0  0  0  0  0  0
   11.2362   -3.4226   18.0766 C   0  0  0  0  0  0  0  0  0  0  0  0
   10.0235   -5.3711   18.7596 C   0  0  0  0  0  0  0  0  0  0  0  0
    6.6197   -7.5984   16.3520 N   0  0  0  0  0  0  0  0  0  0  0  0
    8.5949   -6.6178   17.0691 C   0  0  0  0  0  0  0  0  0  0  0  0
    0.8255   -9.8012   14.1791 C   0  0  0  0  0  0  0  0  0  0  0  0
    7.0498   -5.4805   15.3606 O   0  0  0  0  0  0  0  0  0  0  0  0
    7.4363   -6.4318   16.1515 C   0  0  0  0  0  0  0  0  0  0  0  0
   11.3794   -4.1045   20.3821 C   0  0  0  0  0  0  0  0  0  0  0  0
    9.5280   -5.5704   17.4389 C   0  0  0  0  0  0  0  0  0  0  0  0
    5.2424   -7.8582   16.2065 C   0  0  0  0  0  0  0  0  0  0  0  0
    9.5534   -2.2053   24.0358 C   0  0  0  0  0  0  0  0  0  0  0  0
    9.9226   -4.6605   16.4761 C   0  0  0  0  0  0  0  0  0  0  0  0
    4.8702   -9.1317   16.6041 C   0  0  0  0  0  0  0  0  0  0  0  0
    2.6627   -8.4921   16.2356 C   0  0  0  0  0  0  0  0  0  0  0  0
   -0.0380  -10.6223   13.4987 C   0  0  0  0  0  0  0  0  0  0  0  0
  1 18  4  0
  1 29  4  0
  2  8  1  0
  2 23  1  0
  3  7  1  0
  3 33  1  0
  4  6  4  0
  4 14  4  0
  5 10  1  0
  5 12  1  0
  6  9  4  0
  7 11  4  0
  7 24  4  0
  8 22  1  0
  9 30  4  0
 10 14  4  0
 10 30  4  0
 11 17  4  0
 12 27  2  0
 13 17  4  0
 13 34  4  0
 15 32  4  0
 15 33  4  0
 16 20  4  0
 16 21  4  0
 16 27  1  0
 18 33  4  0
 19 20  4  0
 19 31  4  0
 21 28  4  0
 22 26  1  0
 22 29  1  0
 23 26  1  0
 23 28  1  0
 24 34  4  0
 25 26  2  0
 28 31  4  0
 29 32  4  0
M  END
$$$$

 Created by Python create_sdf_string function

 34 62  0  0  0  0  0  0  0  0999 V2000
    4.9640   -7.2005   15.8214 C   0  0  0  0  0  0  0  0  0  0  0  0
    8.1397   -7.2282   17.7006 C   0  0  0  0  0  0  0  0  0  0  0  0
    1.4666   -8.8505   16.3149 C   0  0  0  0  0  0  0  0  0  0  0  0
   10.3970   -3.5533   26.1394 C   0  0  0  0  0  0  0  0  0  0  0  0
   11.2336   -3.6186   23.1060 N   0  0  0  0  0  0  0  0  0  0  0  0
    9.4365   -2.7277   26.2202 C   0  0  0  0  0  0  0  0  0  0  0  0
    0.8556   -9.7187   15.7211 C   0  0  0  0  0  0  0  0  0  0  0  0
    7.1450   -8.5446   17.4069 C   0  0  0  0  0  0  0  0  0  0  0  0
    9.2174   -1.8340   25.2611 C   0  0  0  0  0  0  0  0  0  0  0  0
    0.4134  -10.9233   16.3126 N   0  0  0  0  0  0  0  0  0  0  0  0
   10.2193   -3.7046   21.2018 C   0  0  0  0  0  0  0  0  0  0  0  0
   -0.8098  -11.1437   14.2444 C   0  0  0  0  0  0  0  0  0  0  0  0
   10.7918   -3.9764   24.7599 C   0  0  0  0  0  0  0  0  0  0  0  0
    3.2250   -9.6983   16.3868 C   0  0  0  0  0  0  0  0  0  0  0  0
   11.1612   -4.5086   18.8957 C   0  0  0  0  0  0  0  0  0  0  0  0
   -0.6909  -11.8655   15.6052 C   0  0  0  0  0  0  0  0  0  0  0  0
    3.6391   -7.1746   16.2433 O   0  0  0  0  0  0  0  0  0  0  0  0
   10.7418   -3.8566   16.8245 C   0  0  0  0  0  0  0  0  0  0  0  0
   11.0841   -3.3772   18.1896 C   0  0  0  0  0  0  0  0  0  0  0  0
    6.8768   -7.7972   16.5661 N   0  0  0  0  0  0  0  0  0  0  0  0
    8.5434   -6.8267   16.6100 C   0  0  0  0  0  0  0  0  0  0  0  0
    0.7718   -9.8672   14.5747 C   0  0  0  0  0  0  0  0  0  0  0  0
    7.5513   -5.1310   15.6372 O   0  0  0  0  0  0  0  0  0  0  0  0
    7.5625   -6.2364   15.9657 O   0  0  0  0  0  0  0  0  0  0  0  0
    9.6690   -5.5032   17.7274 C   0  0  0  0  0  0  0  0  0  0  0  0
    5.1415   -7.6792   16.6365 C   0  0  0  0  0  0  0  0  0  0  0  0
    9.4756   -2.1633   23.9214 C   0  0  0  0  0  0  0  0  0  0  0  0
    9.9505   -4.6479   16.3314 C   0  0  0  0  0  0  0  0  0  0  0  0
    4.2082   -9.0552   16.8139 F   0  0  0  0  0  0  0  0  0  0  0  0
    2.6076   -8.9392   16.0444 C   0  0  0  0  0  0  0  0  0  0  0  0
    0.0091  -10.7837   13.5021 C   0  0  0  0  0  0  0  0  0  0  0  0
   10.4086   -3.1502   24.1356 He  0  0  0  0  0  0  0  0  0  0  0  0
   10.1919   -5.5000   18.9244 He  0  0  0  0  0  0  0  0  0  0  0  0
   10.6388   -4.2812   20.4387 He  0  0  0  0  0  0  0  0  0  0  0  0
  1 26  4  0
  2  6  3  0
  2 21  1  0
  2 27  4  0
  3  7  1  0
  3  9  4  0
  3 20  4  0
  4  6  4  0
  4 18  4  0
  4 20  4  0
  5  7  1  0
  5  8  3  0
  5 11  1  0
  5 19  1  0
  5 28  4  0
  5 30  4  0
  6  9  4  0
  6 17  2  0
  6 22  4  0
  6 30  2  0
  6 31  2  0
  7 10  4  0
  7 12  2  0
  7 20  1  0
  7 22  4  0
  7 26  3  0
  7 31  4  0
  8 20  1  0
  9 12  1  0
  9 27  4  0
 10 12  2  0
 11 20  2  0
 12 16  4  0
 12 31  4  0
 13 21  1  0
 13 23  3  0
 14 19  1  0
 14 29  4  0
 15 19  1  0
 15 20  2  0
 15 23  1  0
 15 24  2  0
 15 26  4  0
 17 21  4  0
 17 30  4  0
 18 21  2  0
 18 23  4  0
 18 27  4  0
 18 28  4  0
 18 30  1  0
 20 24  1  0
 20 26  3  0
 21 24  1  0
 22 31  4  0
 23 24  2  0
 23 29  2  0
 24 26  1  0
 25 28  4  0
 25 31  4  0
 26 29  4  0
 28 31  1  0
 29 30  2  0
M  END
$$$$

 Created by Python create_sdf_string function

 34 38  0  0  0  0  0  0  0  0999 V2000
    4.4531   -7.0508   15.8952 C   0  0  0  0  0  0  0  0  0  0  0  0
    8.4566   -7.7766   17.9608 C   0  0  0  0  0  0  0  0  0  0  0  0
    1.2987   -8.6835   16.3766 C   0  0  0  0  0  0  0  0  0  0  0  0
   10.2922   -3.6667   26.2127 C   0  0  0  0  0  0  0  0  0  0  0  0
   11.1672   -3.5659   22.6881 N   0  0  0  0  0  0  0  0  0  0  0  0
    9.4377   -2.5823   26.3350 C   0  0  0  0  0  0  0  0  0  0  0  0
    0.6923   -9.8174   15.6448 C   0  0  0  0  0  0  0  0  0  0  0  0
    7.3691   -8.3972   17.4588 C   0  0  0  0  0  0  0  0  0  0  0  0
    9.1203   -1.8181   25.2244 C   0  0  0  0  0  0  0  0  0  0  0  0
   10.5136   -3.2311   23.9065 C   0  0  0  0  0  0  0  0  0  0  0  0
    0.0917  -10.8093   16.3428 N   0  0  0  0  0  0  0  0  0  0  0  0
   10.3929   -3.7137   21.4595 C   0  0  0  0  0  0  0  0  0  0  0  0
   -0.7592  -11.5757   14.2652 C   0  0  0  0  0  0  0  0  0  0  0  0
   10.8349   -4.0116   24.9836 C   0  0  0  0  0  0  0  0  0  0  0  0
    3.5583   -9.4622   16.8072 C   0  0  0  0  0  0  0  0  0  0  0  0
   10.7527   -4.4091   19.0885 C   0  0  0  0  0  0  0  0  0  0  0  0
   -0.6832  -11.6782   15.6221 C   0  0  0  0  0  0  0  0  0  0  0  0
    3.1745   -7.3136   15.8313 C   0  0  0  0  0  0  0  0  0  0  0  0
   10.8423   -3.5821   16.9485 C   0  0  0  0  0  0  0  0  0  0  0  0
   11.1555   -3.4320   18.2422 C   0  0  0  0  0  0  0  0  0  0  0  0
   10.0373   -5.4926   18.7148 C   0  0  0  0  0  0  0  0  0  0  0  0
    6.7180   -7.5861   16.5338 N   0  0  0  0  0  0  0  0  0  0  0  0
    8.7476   -6.6646   16.9515 C   0  0  0  0  0  0  0  0  0  0  0  0
    0.7111   -9.7448   14.2525 C   0  0  0  0  0  0  0  0  0  0  0  0
    7.2665   -5.4888   15.4374 O   0  0  0  0  0  0  0  0  0  0  0  0
    7.5203   -6.4310   16.2322 C   0  0  0  0  0  0  0  0  0  0  0  0
   11.2660   -4.3211   20.3885 C   0  0  0  0  0  0  0  0  0  0  0  0
    9.6307   -5.6053   17.3416 C   0  0  0  0  0  0  0  0  0  0  0  0
    5.3107   -7.9855   16.4054 C   0  0  0  0  0  0  0  0  0  0  0  0
    9.6504   -2.1419   23.9871 C   0  0  0  0  0  0  0  0  0  0  0  0
   10.0309   -4.6201   16.4727 C   0  0  0  0  0  0  0  0  0  0  0  0
    4.8044   -9.2258   16.7988 C   0  0  0  0  0  0  0  0  0  0  0  0
    2.7367   -8.4902   16.3249 C   0  0  0  0  0  0  0  0  0  0  0  0
   -0.1066  -10.6258   13.5832 C   0  0  0  0  0  0  0  0  0  0  0  0
  1 18  4  0
  1 29  4  0
  2  8  1  0
  2 23  1  0
  3  7  1  0
  3 33  1  0
  4  6  4  0
  4 14  4  0
  5 10  1  0
  5 12  1  0
  6  9  4  0
  7 11  4  0
  7 24  4  0
  8 22  1  0
  9 30  4  0
 10 14  4  0
 10 30  4  0
 11 17  4  0
 12 27  1  0
 13 17  4  0
 13 34  4  0
 15 32  4  0
 15 33  4  0
 16 20  4  0
 16 21  4  0
 16 27  1  0
 18 33  4  0
 19 20  4  0
 19 31  4  0
 21 28  4  0
 22 26  1  0
 22 29  1  0
 23 26  1  0
 23 28  1  0
 24 34  4  0
 25 26  2  0
 28 31  4  0
 29 32  4  0
M  END
$$$$

 Created by Python create_sdf_string function

 34 74  0  0  0  0  0  0  0  0999 V2000
    4.2966   -7.3960   15.8097 C   0  0  0  0  0  0  0  0  0  0  0  0
    8.4783   -7.4651   17.7739 C   0  0  0  0  0  0  0  0  0  0  0  0
    1.4536   -9.0330   16.2238 P   0  0  0  0  0  0  0  0  0  0  0  0
   10.2007   -3.6359   26.1663 C   0  0  0  0  0  0  0  0  0  0  0  0
   11.6006   -3.4110   22.9875 N   0  0  0  0  0  0  0  0  0  0  0  0
    9.3917   -2.8185   26.5073 C   0  0  0  0  0  0  0  0  0  0  0  0
    0.5853   -9.8479   15.8102 C   0  0  0  0  0  0  0  0  0  0  0  0
    7.3128   -8.2539   17.2357 C   0  0  0  0  0  0  0  0  0  0  0  0
    9.0914   -1.8433   25.3654 C   0  0  0  0  0  0  0  0  0  0  0  0
   10.6490   -3.2166   24.0224 C   0  0  0  0  0  0  0  0  0  0  0  0
    0.0786  -10.9175   16.4436 S   0  0  0  0  0  0  0  0  0  0  0  0
   10.3295   -3.7976   21.4858 C   0  0  0  0  0  0  0  0  0  0  0  0
   -1.0767  -11.7254   14.4130 F   0  0  0  0  0  0  0  0  0  0  0  0
   10.9719   -3.9785   24.7516 C   0  0  0  0  0  0  0  0  0  0  0  0
    3.7367   -9.5419   16.9640 C   0  0  0  0  0  0  0  0  0  0  0  0
   10.6922   -5.1229   18.7369 C   0  0  0  0  0  0  0  0  0  0  0  0
   -0.7014  -11.8600   15.7482 C   0  0  0  0  0  0  0  0  0  0  0  0
    3.1082   -6.8843   15.7404 C   0  0  0  0  0  0  0  0  0  0  0  0
   10.8105   -3.6806   16.9881 C   0  0  0  0  0  0  0  0  0  0  0  0
   11.0689   -3.4416   18.1289 C   0  0  0  0  0  0  0  0  0  0  0  0
   10.0784   -5.4726   18.9200 C   0  0  0  0  0  0  0  0  0  0  0  0
    7.0390   -7.2765   16.8253 N   0  0  0  0  0  0  0  0  0  0  0  0
    8.6810   -6.6789   16.7516 N   0  0  0  0  0  0  0  0  0  0  0  0
    0.8595   -9.7649   14.3350 C   0  0  0  0  0  0  0  0  0  0  0  0
    7.4530   -5.4842   15.7920 O   0  0  0  0  0  0  0  0  0  0  0  0
    7.6113   -6.5257   16.3892 C   0  0  0  0  0  0  0  0  0  0  0  0
   11.1609   -4.4590   20.5522 C   0  0  0  0  0  0  0  0  0  0  0  0
    9.5688   -5.6926   17.3091 C   0  0  0  0  0  0  0  0  0  0  0  0
    5.0469   -7.7434   16.4334 C   0  0  0  0  0  0  0  0  0  0  0  0
    9.7474   -1.8188   24.0158 C   0  0  0  0  0  0  0  0  0  0  0  0
    4.6313   -9.7039   16.7860 C   0  0  0  0  0  0  0  0  0  0  0  0
   -0.1451  -10.4326   13.5554 C   0  0  0  0  0  0  0  0  0  0  0  0
   10.0876   -4.4495   16.6509 He  0  0  0  0  0  0  0  0  0  0  0  0
    2.3707   -8.3958   16.2198 He  0  0  0  0  0  0  0  0  0  0  0  0
  1  4  2  0
  1 17  2  0
  1 18  4  0
  2  8  1  0
  2 11  1  0
  2 22  1  0
  2 27  2  0
  2 28  1  0
  3  7  1  0
  3  8  2  0
  3 28  1  0
  4  6  4  0
  4 12  3  0
  4 14  4  0
  4 15  1  0
  4 25  4  0
  4 28  1  0
  5 10  1  0
  5 12  1  0
  6  9  4  0
  6 13  2  0
  6 15  4  0
  6 27  1  0
  7 19  2  0
  7 24  4  0
  7 27  4  0
  7 32  2  0
  8 31  4  0
  9 10  3  0
  9 24  2  0
  9 27  2  0
  9 29  1  0
  9 30  4  0
 10 14  4  0
 10 18  3  0
 10 25  1  0
 10 30  4  0
 11 17  4  0
 11 25  1  0
 12 16  2  0
 12 27  1  0
 13 17  4  0
 13 25  4  0
 13 30  2  0
 13 32  4  0
 14 15  3  0
 15 17  4  0
 15 25  2  0
 15 26  1  0
 15 31  4  0
 16 20  4  0
 16 21  4  0
 16 27  3  0
 16 31  2  0
 17 21  1  0
 17 22  4  0
 18 30  2  0
 19 20  4  0
 19 22  2  0
 20 23  1  0
 20 24  1  0
 20 27  4  0
 21 24  3  0
 21 28  4  0
 22 24  1  0
 22 26  1  0
 22 27  1  0
 22 29  1  0
 23 26  1  0
 23 28  1  0
 24 32  4  0
 25 26  2  0
 27 31  4  0
 29 31  4  0
M  END
$$$$

 Created by Python create_sdf_string function

 34 38  0  0  0  0  0  0  0  0999 V2000
    4.3855   -7.0777   15.8885 C   0  0  0  0  0  0  0  0  0  0  0  0
    8.6493   -7.9073   17.7512 C   0  0  0  0  0  0  0  0  0  0  0  0
    1.2177   -8.7698   16.4096 C   0  0  0  0  0  0  0  0  0  0  0  0
   10.2336   -3.7665   26.1965 C   0  0  0  0  0  0  0  0  0  0  0  0
   11.3016   -3.3709   22.6663 C   0  0  0  0  0  0  0  0  0  0  0  0
    9.3650   -2.6897   26.3464 C   0  0  0  0  0  0  0  0  0  0  0  0
    0.6284   -9.8234   15.7051 C   0  0  0  0  0  0  0  0  0  0  0  0
    7.4019   -8.4502   17.4414 C   0  0  0  0  0  0  0  0  0  0  0  0
    9.1691   -1.8028   25.2723 C   0  0  0  0  0  0  0  0  0  0  0  0
   10.6299   -3.1337   23.9329 C   0  0  0  0  0  0  0  0  0  0  0  0
    0.0273  -10.8466   16.4001 N   0  0  0  0  0  0  0  0  0  0  0  0
   10.5005   -3.7721   21.5404 C   0  0  0  0  0  0  0  0  0  0  0  0
   -0.8646  -11.6179   14.3600 C   0  0  0  0  0  0  0  0  0  0  0  0
   10.8749   -4.0055   24.9787 C   0  0  0  0  0  0  0  0  0  0  0  0
    3.5421   -9.4505   16.8647 C   0  0  0  0  0  0  0  0  0  0  0  0
   10.7848   -4.5079   19.0880 C   0  0  0  0  0  0  0  0  0  0  0  0
   -0.7749  -11.7450   15.6961 C   0  0  0  0  0  0  0  0  0  0  0  0
    3.1011   -7.3474   15.8187 C   0  0  0  0  0  0  0  0  0  0  0  0
   10.8003   -3.5767   16.9496 C   0  0  0  0  0  0  0  0  0  0  0  0
   11.1552   -3.4989   18.2938 C   0  0  0  0  0  0  0  0  0  0  0  0
   10.0548   -5.5255   18.7371 C   0  0  0  0  0  0  0  0  0  0  0  0
    6.6739   -7.5607   16.6119 N   0  0  0  0  0  0  0  0  0  0  0  0
    8.6720   -6.5444   17.0817 N   0  0  0  0  0  0  0  0  0  0  0  0
    0.5724   -9.7383   14.3253 C   0  0  0  0  0  0  0  0  0  0  0  0
    7.2322   -5.5087   15.5309 O   0  0  0  0  0  0  0  0  0  0  0  0
    7.4847   -6.4225   16.3459 C   0  0  0  0  0  0  0  0  0  0  0  0
   11.2948   -4.4864   20.4716 C   0  0  0  0  0  0  0  0  0  0  0  0
    9.5789   -5.5793   17.4200 C   0  0  0  0  0  0  0  0  0  0  0  0
    5.2806   -7.9285   16.4584 C   0  0  0  0  0  0  0  0  0  0  0  0
    9.7782   -2.0408   24.0565 C   0  0  0  0  0  0  0  0  0  0  0  0
    9.9597   -4.5912   16.5293 C   0  0  0  0  0  0  0  0  0  0  0  0
    4.7816   -9.1799   16.9248 C   0  0  0  0  0  0  0  0  0  0  0  0
    2.6673   -8.5289   16.3425 C   0  0  0  0  0  0  0  0  0  0  0  0
   -0.2326  -10.6603   13.6390 C   0  0  0  0  0  0  0  0  0  0  0  0
  1 18  4  0
  1 29  4  0
  2  8  1  0
  2 23  1  0
  3  7  1  0
  3 33  1  0
  4  6  4  0
  4 14  4  0
  5 10  1  0
  5 12  1  0
  6  9  4  0
  7 11  4  0
  7 24  4  0
  8 22  1  0
  9 30  4  0
 10 14  4  0
 10 30  4  0
 11 17  4  0
 12 27  1  0
 13 17  4  0
 13 34  4  0
 15 32  4  0
 15 33  4  0
 16 20  4  0
 16 21  4  0
 16 27  1  0
 18 33  4  0
 19 20  4  0
 19 31  4  0
 21 28  4  0
 22 26  1  0
 22 29  1  0
 23 26  1  0
 23 28  1  0
 24 34  4  0
 25 26  2  0
 28 31  4  0
 29 32  4  0
M  END
$$$$

 Created by Python create_sdf_string function

 34 82  0  0  0  0  0  0  0  0999 V2000
    4.0938   -7.2119   15.7040 C   0  0  0  0  0  0  0  0  0  0  0  0
    8.5690   -7.6901   17.7118 C   0  0  0  0  0  0  0  0  0  0  0  0
    1.0511   -8.5804   16.3578 B   0  0  0  0  0  0  0  0  0  0  0  0
   10.1763   -3.5731   26.3465 C   0  0  0  0  0  0  0  0  0  0  0  0
   11.7084   -3.3531   22.9630 C   0  0  0  0  0  0  0  0  0  0  0  0
    9.4580   -2.6982   26.2678 C   0  0  0  0  0  0  0  0  0  0  0  0
    0.6008  -10.0351   15.5859 P   0  0  0  0  0  0  0  0  0  0  0  0
    7.4333   -8.3421   17.6171 C   0  0  0  0  0  0  0  0  0  0  0  0
    9.4695   -1.6208   25.0280 C   0  0  0  0  0  0  0  0  0  0  0  0
   10.5568   -3.0800   24.0380 C   0  0  0  0  0  0  0  0  0  0  0  0
    0.2947  -11.1594   16.5266 N   0  0  0  0  0  0  0  0  0  0  0  0
   10.1669   -3.5842   21.7646 C   0  0  0  0  0  0  0  0  0  0  0  0
   -0.5478  -11.9410   14.5085 C   0  0  0  0  0  0  0  0  0  0  0  0
   10.7972   -4.0469   24.7965 C   0  0  0  0  0  0  0  0  0  0  0  0
    3.5389   -9.5085   16.8864 C   0  0  0  0  0  0  0  0  0  0  0  0
   11.0348   -4.2466   18.8560 C   0  0  0  0  0  0  0  0  0  0  0  0
   -0.8025  -11.7798   15.5646 C   0  0  0  0  0  0  0  0  0  0  0  0
    3.3460   -7.3232   16.2258 C   0  0  0  0  0  0  0  0  0  0  0  0
   10.6046   -3.5813   16.8845 C   0  0  0  0  0  0  0  0  0  0  0  0
   11.3062   -3.2336   18.5649 C   0  0  0  0  0  0  0  0  0  0  0  0
   10.2918   -5.6522   18.7119 C   0  0  0  0  0  0  0  0  0  0  0  0
    6.9098   -7.3867   16.4231 N   0  0  0  0  0  0  0  0  0  0  0  0
    8.5126   -6.5700   17.0295 P   0  0  0  0  0  0  0  0  0  0  0  0
    0.7052   -9.9869   14.6657 C   0  0  0  0  0  0  0  0  0  0  0  0
    7.0464   -5.4100   15.6146 O   0  0  0  0  0  0  0  0  0  0  0  0
    7.4816   -6.3716   16.1820 C   0  0  0  0  0  0  0  0  0  0  0  0
   10.7686   -4.1634   20.4018 C   0  0  0  0  0  0  0  0  0  0  0  0
    9.5441   -5.5728   17.3890 C   0  0  0  0  0  0  0  0  0  0  0  0
    4.9965   -8.0597   16.2321 C   0  0  0  0  0  0  0  0  0  0  0  0
    9.7333   -2.0889   24.0130 C   0  0  0  0  0  0  0  0  0  0  0  0
    9.8399   -4.6185   16.2271 C   0  0  0  0  0  0  0  0  0  0  0  0
    4.3278   -9.6053   16.5216 C   0  0  0  0  0  0  0  0  0  0  0  0
    2.7652   -8.7190   16.4336 C   0  0  0  0  0  0  0  0  0  0  0  0
   -0.2051  -10.7507   13.7339 C   0  0  0  0  0  0  0  0  0  0  0  0
  1 23  2  0
  1 29  4  0
  1 30  3  0
  2  4  3  0
  2  8  1  0
  2 10  2  0
  2 14  4  0
  2 23  1  0
  2 31  4  0
  3  7  1  0
  3 25  2  0
  3 33  1  0
  4  6  4  0
  4  9  4  0
  4 14  2  0
  4 17  1  0
  4 18  4  0
  4 29  2  0
  5 10  1  0
  5 12  1  0
  6  8  2  0
  6  9  4  0
  6 27  2  0
  6 29  4  0
  7  9  1  0
  7 11  4  0
  7 15  3  0
  7 18  4  0
  7 23  3  0
  7 24  4  0
  7 34  3  0
  8 15  4  0
  8 22  1  0
  9 30  4  0
 10 13  1  0
 10 14  4  0
 10 29  4  0
 10 30  4  0
 10 33  4  0
 11 17  1  0
 12 13  4  0
 12 16  2  0
 12 23  2  0
 12 24  1  0
 12 31  3  0
 12 34  4  0
 13 17  4  0
 13 19  1  0
 13 34  4  0
 14 18  1  0
 14 21  1  0
 14 24  2  0
 14 33  1  0
 15 22  2  0
 15 25  1  0
 15 29  4  0
 15 31  3  0
 15 32  4  0
 15 33  4  0
 16 20  4  0
 16 21  4  0
 16 27  1  0
 17 23  1  0
 17 27  3  0
 18 25  3  0
 18 27  2  0
 18 30  1  0
 18 33  4  0
 19 20  2  0
 19 31  4  0
 20 31  4  0
 21 28  4  0
 22 27  2  0
 22 29  1  0
 22 30  1  0
 23 26  1  0
 23 28  1  0
 23 32  2  0
 23 33  4  0
 24 34  4  0
 25 26  2  0
 28 31  4  0
M  END
$$$$

 Created by Python create_sdf_string function

 34 38  0  0  0  0  0  0  0  0999 V2000
    4.3199   -7.1225   15.9580 C   0  0  0  0  0  0  0  0  0  0  0  0
    8.6271   -7.7816   17.7441 C   0  0  0  0  0  0  0  0  0  0  0  0
    1.1489   -8.8051   16.5188 C   0  0  0  0  0  0  0  0  0  0  0  0
   10.1576   -3.6645   26.2290 C   0  0  0  0  0  0  0  0  0  0  0  0
   11.3980   -3.4393   22.7176 C   0  0  0  0  0  0  0  0  0  0  0  0
    9.4022   -2.5152   26.3256 C   0  0  0  0  0  0  0  0  0  0  0  0
    0.5670   -9.9195   15.7768 C   0  0  0  0  0  0  0  0  0  0  0  0
    7.3681   -8.4548   17.4741 C   0  0  0  0  0  0  0  0  0  0  0  0
    9.2404   -1.6916   25.2172 C   0  0  0  0  0  0  0  0  0  0  0  0
   10.6637   -3.1298   23.9725 C   0  0  0  0  0  0  0  0  0  0  0  0
    0.0160  -10.9595   16.4927 N   0  0  0  0  0  0  0  0  0  0  0  0
   10.4533   -3.7089   21.5771 C   0  0  0  0  0  0  0  0  0  0  0  0
   -0.7383  -11.8439   14.4318 C   0  0  0  0  0  0  0  0  0  0  0  0
   10.8114   -3.9976   25.0326 C   0  0  0  0  0  0  0  0  0  0  0  0
    3.5123   -9.5345   16.7871 C   0  0  0  0  0  0  0  0  0  0  0  0
   10.7055   -4.3567   19.0871 C   0  0  0  0  0  0  0  0  0  0  0  0
   -0.6272  -11.9047   15.7940 C   0  0  0  0  0  0  0  0  0  0  0  0
    3.0557   -7.3638   16.0013 C   0  0  0  0  0  0  0  0  0  0  0  0
   10.7094   -3.5079   16.8893 C   0  0  0  0  0  0  0  0  0  0  0  0
   11.0710   -3.3597   18.2373 C   0  0  0  0  0  0  0  0  0  0  0  0
   10.0355   -5.4626   18.6882 C   0  0  0  0  0  0  0  0  0  0  0  0
    6.6498   -7.6643   16.5111 N   0  0  0  0  0  0  0  0  0  0  0  0
    8.6197   -6.5295   17.0214 N   0  0  0  0  0  0  0  0  0  0  0  0
    0.5720   -9.8628   14.3777 C   0  0  0  0  0  0  0  0  0  0  0  0
    7.0781   -5.5313   15.5036 O   0  0  0  0  0  0  0  0  0  0  0  0
    7.3901   -6.4424   16.2948 C   0  0  0  0  0  0  0  0  0  0  0  0
   11.1877   -4.2441   20.4399 C   0  0  0  0  0  0  0  0  0  0  0  0
    9.5457   -5.5430   17.3874 C   0  0  0  0  0  0  0  0  0  0  0  0
    5.2425   -8.0613   16.3789 C   0  0  0  0  0  0  0  0  0  0  0  0
    9.8653   -1.9891   24.0160 C   0  0  0  0  0  0  0  0  0  0  0  0
    9.8959   -4.5288   16.4781 C   0  0  0  0  0  0  0  0  0  0  0  0
    4.7253   -9.3320   16.7172 C   0  0  0  0  0  0  0  0  0  0  0  0
    2.6171   -8.5679   16.4431 C   0  0  0  0  0  0  0  0  0  0  0  0
   -0.1131  -10.8723   13.7055 C   0  0  0  0  0  0  0  0  0  0  0  0
  1 18  4  0
  1 29  4  0
  2  8  1  0
  2 23  1  0
  3  7  1  0
  3 33  1  0
  4  6  4  0
  4 14  4  0
  5 10  1  0
  5 12  1  0
  6  9  4  0
  7 11  4  0
  7 24  4  0
  8 22  1  0
  9 30  4  0
 10 14  4  0
 10 30  4  0
 11 17  4  0
 12 27  1  0
 13 17  4  0
 13 34  4  0
 15 32  4  0
 15 33  4  0
 16 20  4  0
 16 21  4  0
 16 27  1  0
 18 33  4  0
 19 20  4  0
 19 31  4  0
 21 28  4  0
 22 26  1  0
 22 29  1  0
 23 26  1  0
 23 28  1  0
 24 34  4  0
 25 26  2  0
 28 31  4  0
 29 32  4  0
M  END
$$$$

 Created by Python create_sdf_string function

 34 47  0  0  0  0  0  0  0  0999 V2000
    4.3857   -6.7937   15.8689 C   0  0  0  0  0  0  0  0  0  0  0  0
    8.5485   -7.7952   17.5945 Cl  0  0  0  0  0  0  0  0  0  0  0  0
    1.1384   -8.7249   16.7234 C   0  0  0  0  0  0  0  0  0  0  0  0
   10.2626   -3.7607   26.3252 C   0  0  0  0  0  0  0  0  0  0  0  0
   11.6616   -3.2758   22.8548 C   0  0  0  0  0  0  0  0  0  0  0  0
    9.4576   -2.6648   26.2917 C   0  0  0  0  0  0  0  0  0  0  0  0
    0.4994   -9.8628   15.8842 C   0  0  0  0  0  0  0  0  0  0  0  0
    9.2176   -1.7389   25.2601 S   0  0  0  0  0  0  0  0  0  0  0  0
   10.4964   -3.1599   23.8954 C   0  0  0  0  0  0  0  0  0  0  0  0
    0.0162  -11.0244   16.5682 N   0  0  0  0  0  0  0  0  0  0  0  0
   10.4654   -3.7602   21.5912 C   0  0  0  0  0  0  0  0  0  0  0  0
   -0.4990  -11.6543   14.4367 C   0  0  0  0  0  0  0  0  0  0  0  0
   10.8323   -3.8348   25.1191 C   0  0  0  0  0  0  0  0  0  0  0  0
   10.7663   -4.5476   18.9529 F   0  0  0  0  0  0  0  0  0  0  0  0
   -0.8115  -11.9516   15.7411 C   0  0  0  0  0  0  0  0  0  0  0  0
    2.7121   -7.2389   15.5677 C   0  0  0  0  0  0  0  0  0  0  0  0
   10.9387   -3.2597   16.9235 C   0  0  0  0  0  0  0  0  0  0  0  0
   10.9011   -3.3794   18.2139 C   0  0  0  0  0  0  0  0  0  0  0  0
    9.8513   -5.4481   18.8249 C   0  0  0  0  0  0  0  0  0  0  0  0
    7.0517   -7.8162   16.7616 N   0  0  0  0  0  0  0  0  0  0  0  0
    8.5591   -6.1984   16.3606 N   0  0  0  0  0  0  0  0  0  0  0  0
    6.8879   -4.9906   15.4335 O   0  0  0  0  0  0  0  0  0  0  0  0
   11.2310   -3.9585   20.3713 C   0  0  0  0  0  0  0  0  0  0  0  0
    9.4761   -5.6507   17.3017 C   0  0  0  0  0  0  0  0  0  0  0  0
    5.6093   -8.2261   16.3493 C   0  0  0  0  0  0  0  0  0  0  0  0
    9.6353   -1.9818   24.0772 C   0  0  0  0  0  0  0  0  0  0  0  0
    9.9443   -4.5513   16.4982 C   0  0  0  0  0  0  0  0  0  0  0  0
    2.2890   -8.8306   16.4450 O   0  0  0  0  0  0  0  0  0  0  0  0
    7.3753   -8.3013   17.4894 He  0  0  0  0  0  0  0  0  0  0  0  0
    2.9660   -9.7022   17.1539 He  0  0  0  0  0  0  0  0  0  0  0  0
    0.5898   -9.9147   14.2297 He  0  0  0  0  0  0  0  0  0  0  0  0
    7.4794   -6.4554   16.3383 He  0  0  0  0  0  0  0  0  0  0  0  0
    4.3692   -8.9537   16.4562 He  0  0  0  0  0  0  0  0  0  0  0  0
    0.0147  -10.8597   13.6296 He  0  0  0  0  0  0  0  0  0  0  0  0
  1 16  4  0
  1 25  4  0
  1 26  1  0
  2  5  3  0
  2 16  1  0
  2 25  1  0
  2 27  2  0
  3  7  1  0
  3 27  4  0
  3 28  1  0
  4  6  4  0
  4  8  4  0
  4 13  4  0
  4 14  4  0
  4 25  4  0
  5 10  1  0
  5 11  1  0
  5 17  1  0
  5 24  4  0
  5 27  4  0
  6  8  4  0
  7 10  4  0
  8 21  4  0
  8 26  4  0
  9 13  4  0
  9 15  1  0
  9 26  4  0
 10 15  4  0
 11 20  3  0
 11 23  1  0
 12 15  4  0
 12 27  1  0
 14 18  4  0
 14 22  4  0
 14 23  1  0
 15 17  1  0
 16 24  2  0
 16 27  2  0
 16 28  4  0
 17 18  4  0
 19 23  1  0
 19 24  4  0
 20 22  1  0
 20 25  1  0
 20 26  4  0
 21 24  1  0
 24 27  4  0
M  END
$$$$

 Created by Python create_sdf_string function

 34 38  0  0  0  0  0  0  0  0999 V2000
    4.2658   -7.0983   15.8009 C   0  0  0  0  0  0  0  0  0  0  0  0
    8.6902   -7.7823   17.5228 C   0  0  0  0  0  0  0  0  0  0  0  0
    1.0747   -8.7267   16.5469 C   0  0  0  0  0  0  0  0  0  0  0  0
   10.2380   -3.6708   26.2789 C   0  0  0  0  0  0  0  0  0  0  0  0
   11.3511   -3.3460   22.7000 C   0  0  0  0  0  0  0  0  0  0  0  0
    9.3773   -2.5971   26.3862 C   0  0  0  0  0  0  0  0  0  0  0  0
    0.4633   -9.8670   15.8115 C   0  0  0  0  0  0  0  0  0  0  0  0
    7.4040   -8.3674   17.3973 C   0  0  0  0  0  0  0  0  0  0  0  0
    9.1235   -1.7756   25.2992 C   0  0  0  0  0  0  0  0  0  0  0  0
   10.6212   -3.1013   23.9930 C   0  0  0  0  0  0  0  0  0  0  0  0
   -0.1265  -10.8953   16.4932 N   0  0  0  0  0  0  0  0  0  0  0  0
   10.5192   -3.7783   21.5460 C   0  0  0  0  0  0  0  0  0  0  0  0
   -0.6751  -11.8383   14.3888 C   0  0  0  0  0  0  0  0  0  0  0  0
   10.8656   -3.9435   25.0517 C   0  0  0  0  0  0  0  0  0  0  0  0
    3.4320   -9.4171   16.8940 C   0  0  0  0  0  0  0  0  0  0  0  0
   10.7218   -4.2885   19.0248 C   0  0  0  0  0  0  0  0  0  0  0  0
   -0.7127  -11.8816   15.7395 C   0  0  0  0  0  0  0  0  0  0  0  0
    2.9724   -7.3451   15.8628 C   0  0  0  0  0  0  0  0  0  0  0  0
   10.7451   -3.4538   16.8492 C   0  0  0  0  0  0  0  0  0  0  0  0
   11.0795   -3.3025   18.1773 C   0  0  0  0  0  0  0  0  0  0  0  0
    9.9365   -5.3214   18.6758 C   0  0  0  0  0  0  0  0  0  0  0  0
    6.5996   -7.5724   16.5652 N   0  0  0  0  0  0  0  0  0  0  0  0
    8.5809   -6.4633   16.9546 N   0  0  0  0  0  0  0  0  0  0  0  0
    0.5584   -9.8431   14.4099 C   0  0  0  0  0  0  0  0  0  0  0  0
    6.9914   -5.4750   15.4763 O   0  0  0  0  0  0  0  0  0  0  0  0
    7.3346   -6.4081   16.2398 C   0  0  0  0  0  0  0  0  0  0  0  0
   11.3137   -4.1989   20.3745 C   0  0  0  0  0  0  0  0  0  0  0  0
    9.4764   -5.4627   17.3326 C   0  0  0  0  0  0  0  0  0  0  0  0
    5.2102   -7.9192   16.4044 C   0  0  0  0  0  0  0  0  0  0  0  0
    9.7350   -2.0255   24.0644 C   0  0  0  0  0  0  0  0  0  0  0  0
    9.9136   -4.4907   16.4385 C   0  0  0  0  0  0  0  0  0  0  0  0
    4.6827   -9.1357   16.9106 C   0  0  0  0  0  0  0  0  0  0  0  0
    2.5296   -8.5049   16.4415 C   0  0  0  0  0  0  0  0  0  0  0  0
   -0.0645  -10.8690   13.7060 C   0  0  0  0  0  0  0  0  0  0  0  0
  1 18  4  0
  1 29  4  0
  2  8  1  0
  2 23  1  0
  3  7  1  0
  3 33  1  0
  4  6  4  0
  4 14  4  0
  5 10  1  0
  5 12  1  0
  6  9  4  0
  7 11  4  0
  7 24  4  0
  8 22  1  0
  9 30  4  0
 10 14  4  0
 10 30  4  0
 11 17  4  0
 12 27  1  0
 13 17  4  0
 13 34  4  0
 15 32  4  0
 15 33  4  0
 16 20  4  0
 16 21  4  0
 16 27  1  0
 18 33  4  0
 19 20  4  0
 19 31  4  0
 21 28  4  0
 22 26  1  0
 22 29  1  0
 23 26  1  0
 23 28  1  0
 24 34  4  0
 25 26  2  0
 28 31  4  0
 29 32  4  0
M  END
$$$$

 Created by Python create_sdf_string function

 34 57  0  0  0  0  0  0  0  0999 V2000
    4.5258   -7.4355   15.8951 C   0  0  0  0  0  0  0  0  0  0  0  0
    8.5953   -8.2344   17.8218 C   0  0  0  0  0  0  0  0  0  0  0  0
    1.4187   -8.4589   16.2682 C   0  0  0  0  0  0  0  0  0  0  0  0
   10.2088   -3.5649   26.2666 C   0  0  0  0  0  0  0  0  0  0  0  0
   11.3900   -3.6636   22.6913 C   0  0  0  0  0  0  0  0  0  0  0  0
    9.5019   -2.7828   26.3157 C   0  0  0  0  0  0  0  0  0  0  0  0
    0.5433   -9.8958   15.8524 C   0  0  0  0  0  0  0  0  0  0  0  0
    7.4576   -8.4568   17.3455 C   0  0  0  0  0  0  0  0  0  0  0  0
    9.2930   -1.4680   25.2456 C   0  0  0  0  0  0  0  0  0  0  0  0
   10.6323   -3.0772   23.7395 C   0  0  0  0  0  0  0  0  0  0  0  0
   -0.0813  -10.9895   16.4150 N   0  0  0  0  0  0  0  0  0  0  0  0
   10.3736   -3.7240   21.7107 C   0  0  0  0  0  0  0  0  0  0  0  0
   -0.4834  -12.3803   14.2179 C   0  0  0  0  0  0  0  0  0  0  0  0
   10.9425   -4.0425   24.9400 C   0  0  0  0  0  0  0  0  0  0  0  0
    3.3058   -9.4036   17.2206 C   0  0  0  0  0  0  0  0  0  0  0  0
   -0.8246  -12.0792   15.6813 C   0  0  0  0  0  0  0  0  0  0  0  0
    2.5617   -7.3265   15.8106 C   0  0  0  0  0  0  0  0  0  0  0  0
   10.7720   -3.4299   16.7934 C   0  0  0  0  0  0  0  0  0  0  0  0
   11.1581   -3.1835   18.2793 C   0  0  0  0  0  0  0  0  0  0  0  0
   10.0741   -5.3577   18.7400 C   0  0  0  0  0  0  0  0  0  0  0  0
    6.8394   -7.8038   16.5881 N   0  0  0  0  0  0  0  0  0  0  0  0
    8.5818   -6.6582   17.1465 N   0  0  0  0  0  0  0  0  0  0  0  0
    0.1999  -10.0190   14.1459 C   0  0  0  0  0  0  0  0  0  0  0  0
    7.0515   -5.2224   15.3116 O   0  0  0  0  0  0  0  0  0  0  0  0
    7.3109   -6.2787   16.2830 C   0  0  0  0  0  0  0  0  0  0  0  0
   11.0036   -4.3482   20.5387 C   0  0  0  0  0  0  0  0  0  0  0  0
    9.4160   -5.5347   17.4157 C   0  0  0  0  0  0  0  0  0  0  0  0
    9.5273   -2.0500   24.1331 C   0  0  0  0  0  0  0  0  0  0  0  0
    9.8601   -4.7002   16.4956 C   0  0  0  0  0  0  0  0  0  0  0  0
    4.7631   -9.1925   17.0363 C   0  0  0  0  0  0  0  0  0  0  0  0
    2.6031   -8.7535   16.1532 C   0  0  0  0  0  0  0  0  0  0  0  0
   -0.0485  -10.7582   13.7676 C   0  0  0  0  0  0  0  0  0  0  0  0
   10.5259   -4.4523   18.9445 He  0  0  0  0  0  0  0  0  0  0  0  0
    5.5693   -8.2118   16.6151 He  0  0  0  0  0  0  0  0  0  0  0  0
  1 16  1  0
  1 17  4  0
  1 22  4  0
  2  8  1  0
  2 18  1  0
  2 22  1  0
  2 27  1  0
  2 28  4  0
  3 31  1  0
  4  6  4  0
  4 14  4  0
  4 17  4  0
  4 20  2  0
  4 23  2  0
  4 24  1  0
  4 26  2  0
  5 10  2  0
  5 12  1  0
  5 14  1  0
  5 19  3  0
  5 20  4  0
  6  9  4  0
  6 15  1  0
  7 11  4  0
  7 16  4  0
  7 21  3  0
  8 21  1  0
  8 26  3  0
  9 17  4  0
 10 14  4  0
 10 15  1  0
 10 28  4  0
 11 16  4  0
 11 17  4  0
 11 22  3  0
 12 26  1  0
 12 30  4  0
 13 16  4  0
 13 24  3  0
 13 32  3  0
 15 26  1  0
 15 30  4  0
 15 31  4  0
 17 28  1  0
 17 31  4  0
 18 19  4  0
 18 22  1  0
 18 29  4  0
 20 27  4  0
 21 25  1  0
 21 31  4  0
 22 25  1  0
 22 27  1  0
 23 32  4  0
 24 28  3  0
 24 31  4  0
 27 29  4  0
M  END
$$$$

 Created by Python create_sdf_string function

 34 38  0  0  0  0  0  0  0  0999 V2000
    4.3831   -7.2255   15.8304 C   0  0  0  0  0  0  0  0  0  0  0  0
    8.7189   -7.8950   17.6965 C   0  0  0  0  0  0  0  0  0  0  0  0
    1.1041   -8.7854   16.3745 C   0  0  0  0  0  0  0  0  0  0  0  0
   10.2431   -3.6164   26.2879 C   0  0  0  0  0  0  0  0  0  0  0  0
   11.2514   -3.5246   22.6644 C   0  0  0  0  0  0  0  0  0  0  0  0
    9.4354   -2.5059   26.3588 C   0  0  0  0  0  0  0  0  0  0  0  0
    0.4664   -9.9090   15.6532 C   0  0  0  0  0  0  0  0  0  0  0  0
    7.4924   -8.6103   17.3401 C   0  0  0  0  0  0  0  0  0  0  0  0
    9.1943   -1.7135   25.2300 C   0  0  0  0  0  0  0  0  0  0  0  0
   10.5964   -3.1810   23.9706 C   0  0  0  0  0  0  0  0  0  0  0  0
   -0.0825  -10.9326   16.3780 N   0  0  0  0  0  0  0  0  0  0  0  0
   10.4232   -3.7264   21.5083 C   0  0  0  0  0  0  0  0  0  0  0  0
   -0.6690  -12.0422   14.3560 C   0  0  0  0  0  0  0  0  0  0  0  0
   10.8509   -3.9978   25.0636 C   0  0  0  0  0  0  0  0  0  0  0  0
    3.3945   -9.4299   17.0378 C   0  0  0  0  0  0  0  0  0  0  0  0
   10.6854   -4.3768   19.0721 C   0  0  0  0  0  0  0  0  0  0  0  0
   -0.6388  -11.9781   15.7363 C   0  0  0  0  0  0  0  0  0  0  0  0
    3.0913   -7.4770   15.7678 C   0  0  0  0  0  0  0  0  0  0  0  0
   10.6799   -3.5270   16.8857 C   0  0  0  0  0  0  0  0  0  0  0  0
   11.0401   -3.3897   18.2095 C   0  0  0  0  0  0  0  0  0  0  0  0
    9.9068   -5.4168   18.7394 C   0  0  0  0  0  0  0  0  0  0  0  0
    6.6286   -7.7044   16.6440 N   0  0  0  0  0  0  0  0  0  0  0  0
    8.6024   -6.5712   17.0424 N   0  0  0  0  0  0  0  0  0  0  0  0
    0.4137   -9.9052   14.2347 C   0  0  0  0  0  0  0  0  0  0  0  0
    7.0906   -5.5268   15.5003 O   0  0  0  0  0  0  0  0  0  0  0  0
    7.3707   -6.4920   16.3127 C   0  0  0  0  0  0  0  0  0  0  0  0
   11.2435   -4.2953   20.4098 C   0  0  0  0  0  0  0  0  0  0  0  0
    9.4569   -5.5379   17.4145 C   0  0  0  0  0  0  0  0  0  0  0  0
    5.2507   -8.0496   16.5317 C   0  0  0  0  0  0  0  0  0  0  0  0
    9.7658   -2.0326   24.0191 C   0  0  0  0  0  0  0  0  0  0  0  0
    9.8616   -4.5630   16.5004 C   0  0  0  0  0  0  0  0  0  0  0  0
    4.6636   -9.1798   17.1029 C   0  0  0  0  0  0  0  0  0  0  0  0
    2.5475   -8.5724   16.3991 C   0  0  0  0  0  0  0  0  0  0  0  0
   -0.1578  -11.0086   13.6045 C   0  0  0  0  0  0  0  0  0  0  0  0
  1 18  4  0
  1 29  4  0
  2  8  1  0
  2 23  1  0
  3  7  1  0
  3 33  1  0
  4  6  4  0
  4 14  4  0
  5 10  1  0
  5 12  1  0
  6  9  4  0
  7 11  4  0
  7 24  4  0
  8 22  1  0
  9 30  4  0
 10 14  4  0
 10 30  4  0
 11 17  4  0
 12 27  1  0
 13 17  4  0
 13 34  4  0
 15 32  4  0
 15 33  4  0
 16 20  4  0
 16 21  4  0
 16 27  1  0
 18 33  4  0
 19 20  4  0
 19 31  4  0
 21 28  4  0
 22 26  1  0
 22 29  1  0
 23 26  1  0
 23 28  1  0
 24 34  4  0
 25 26  2  0
 28 31  4  0
 29 32  4  0
M  END
$$$$

 Created by Python create_sdf_string function

 34 49  0  0  0  0  0  0  0  0999 V2000
    4.3703   -7.3729   15.6125 C   0  0  0  0  0  0  0  0  0  0  0  0
    8.7540   -8.2431   17.4348 C   0  0  0  0  0  0  0  0  0  0  0  0
    0.9902   -8.8069   16.2788 C   0  0  0  0  0  0  0  0  0  0  0  0
   10.2479   -3.6736   26.1497 C   0  0  0  0  0  0  0  0  0  0  0  0
   11.1283   -2.9528   22.9783 C   0  0  0  0  0  0  0  0  0  0  0  0
    0.5155   -9.9644   15.4560 C   0  0  0  0  0  0  0  0  0  0  0  0
    7.4432   -8.7529   17.4863 C   0  0  0  0  0  0  0  0  0  0  0  0
    9.2582   -1.7036   25.3825 C   0  0  0  0  0  0  0  0  0  0  0  0
   10.6777   -3.1947   24.0917 C   0  0  0  0  0  0  0  0  0  0  0  0
   -0.2102  -10.7646   16.4159 N   0  0  0  0  0  0  0  0  0  0  0  0
   10.3866   -3.8283   21.5532 C   0  0  0  0  0  0  0  0  0  0  0  0
   -0.8722  -12.0498   14.2676 C   0  0  0  0  0  0  0  0  0  0  0  0
   10.9143   -4.3205   24.9691 C   0  0  0  0  0  0  0  0  0  0  0  0
    2.9989   -9.1177   17.1091 C   0  0  0  0  0  0  0  0  0  0  0  0
   -0.7782  -11.9437   15.8169 C   0  0  0  0  0  0  0  0  0  0  0  0
    3.3450   -7.5074   15.6783 C   0  0  0  0  0  0  0  0  0  0  0  0
   10.6315   -3.6973   16.7232 C   0  0  0  0  0  0  0  0  0  0  0  0
   10.9840   -3.2008   18.2781 C   0  0  0  0  0  0  0  0  0  0  0  0
    9.6902   -5.2642   18.7272 C   0  0  0  0  0  0  0  0  0  0  0  0
    6.9799   -7.9577   16.5039 N   0  0  0  0  0  0  0  0  0  0  0  0
    0.3839  -10.0570   14.0412 C   0  0  0  0  0  0  0  0  0  0  0  0
    7.2905   -5.1016   15.5313 O   0  0  0  0  0  0  0  0  0  0  0  0
    7.2436   -6.5519   16.2433 C   0  0  0  0  0  0  0  0  0  0  0  0
   11.2597   -4.1513   20.3294 C   0  0  0  0  0  0  0  0  0  0  0  0
    9.5967   -5.6480   17.4011 C   0  0  0  0  0  0  0  0  0  0  0  0
    5.0867   -8.0458   16.4457 C   0  0  0  0  0  0  0  0  0  0  0  0
    9.7857   -1.8769   24.1620 C   0  0  0  0  0  0  0  0  0  0  0  0
    9.7881   -4.5154   16.4877 C   0  0  0  0  0  0  0  0  0  0  0  0
    4.4529   -9.3868   16.9285 C   0  0  0  0  0  0  0  0  0  0  0  0
    2.3177   -8.8698   16.6874 C   0  0  0  0  0  0  0  0  0  0  0  0
   -0.0587  -10.9380   13.5408 C   0  0  0  0  0  0  0  0  0  0  0  0
    9.4515   -2.6482   26.3401 He  0  0  0  0  0  0  0  0  0  0  0  0
   10.8004   -4.4583   18.9278 He  0  0  0  0  0  0  0  0  0  0  0  0
    8.4247   -6.1500   16.7202 He  0  0  0  0  0  0  0  0  0  0  0  0
  1 12  2  0
  1 26  4  0
  2  7  1  0
  2 10  2  0
  3  5  3  0
  3  6  1  0
  3 30  1  0
  4 13  4  0
  5  8  4  0
  5 11  1  0
  5 25  3  0
  5 28  4  0
  5 30  2  0
  6 10  4  0
  6 21  4  0
  6 30  4  0
  6 31  2  0
  7 20  1  0
  8 27  4  0
  9 13  4  0
  9 20  1  0
  9 27  4  0
  9 30  4  0
 10 13  4  0
 10 15  4  0
 10 30  3  0
 11 22  1  0
 11 24  1  0
 12 13  1  0
 13 23  1  0
 14 29  4  0
 14 30  4  0
 16 30  4  0
 17 18  4  0
 17 20  3  0
 17 28  4  0
 18 26  2  0
 18 29  4  0
 19 22  1  0
 19 25  4  0
 19 29  3  0
 20 23  1  0
 20 26  4  0
 21 31  4  0
 22 23  2  0
 24 31  2  0
 25 28  4  0
 26 27  4  0
 26 29  4  0
M  END
$$$$

 Created by Python create_sdf_string function

 34 38  0  0  0  0  0  0  0  0999 V2000
    4.3306   -7.3213   15.7068 C   0  0  0  0  0  0  0  0  0  0  0  0
    8.7894   -7.9274   17.4894 C   0  0  0  0  0  0  0  0  0  0  0  0
    0.9865   -8.7081   16.2575 C   0  0  0  0  0  0  0  0  0  0  0  0
   10.2304   -3.7921   26.2043 C   0  0  0  0  0  0  0  0  0  0  0  0
   11.2880   -3.2505   22.6550 C   0  0  0  0  0  0  0  0  0  0  0  0
    9.4593   -2.6778   26.4351 C   0  0  0  0  0  0  0  0  0  0  0  0
    0.3984   -9.8814   15.5865 C   0  0  0  0  0  0  0  0  0  0  0  0
    7.4599   -8.6218   17.2831 C   0  0  0  0  0  0  0  0  0  0  0  0
    9.2468   -1.7352   25.4292 C   0  0  0  0  0  0  0  0  0  0  0  0
   10.5822   -3.0625   23.9674 C   0  0  0  0  0  0  0  0  0  0  0  0
   -0.1910  -10.8419   16.3394 N   0  0  0  0  0  0  0  0  0  0  0  0
   10.4603   -3.8072   21.5285 C   0  0  0  0  0  0  0  0  0  0  0  0
   -0.8175  -11.9759   14.3185 C   0  0  0  0  0  0  0  0  0  0  0  0
   10.8088   -4.0259   24.9468 C   0  0  0  0  0  0  0  0  0  0  0  0
    3.2521   -9.3791   17.0572 C   0  0  0  0  0  0  0  0  0  0  0  0
   10.6806   -4.3174   19.0309 C   0  0  0  0  0  0  0  0  0  0  0  0
   -0.8260  -11.8843   15.7070 C   0  0  0  0  0  0  0  0  0  0  0  0
    3.0492   -7.5173   15.6626 C   0  0  0  0  0  0  0  0  0  0  0  0
   10.6566   -3.5045   16.8454 C   0  0  0  0  0  0  0  0  0  0  0  0
   11.0463   -3.3555   18.1547 C   0  0  0  0  0  0  0  0  0  0  0  0
    9.8800   -5.3620   18.7020 C   0  0  0  0  0  0  0  0  0  0  0  0
    6.6053   -7.7472   16.5703 N   0  0  0  0  0  0  0  0  0  0  0  0
    8.5928   -6.5805   16.9836 C   0  0  0  0  0  0  0  0  0  0  0  0
    0.4614   -9.9723   14.1735 C   0  0  0  0  0  0  0  0  0  0  0  0
    7.0536   -5.5319   15.5138 O   0  0  0  0  0  0  0  0  0  0  0  0
    7.3265   -6.5258   16.2710 C   0  0  0  0  0  0  0  0  0  0  0  0
   11.2808   -4.1757   20.3379 C   0  0  0  0  0  0  0  0  0  0  0  0
    9.4341   -5.5192   17.3688 C   0  0  0  0  0  0  0  0  0  0  0  0
    5.1693   -8.1128   16.4533 C   0  0  0  0  0  0  0  0  0  0  0  0
    9.7910   -1.9195   24.1510 C   0  0  0  0  0  0  0  0  0  0  0  0
    9.8362   -4.5456   16.4494 C   0  0  0  0  0  0  0  0  0  0  0  0
    4.5245   -9.1627   17.1160 C   0  0  0  0  0  0  0  0  0  0  0  0
    2.4494   -8.5400   16.3314 C   0  0  0  0  0  0  0  0  0  0  0  0
   -0.1864  -11.0359   13.5520 C   0  0  0  0  0  0  0  0  0  0  0  0
  1 18  4  0
  1 29  4  0
  2  8  1  0
  2 23  1  0
  3  7  1  0
  3 33  1  0
  4  6  4  0
  4 14  4  0
  5 10  1  0
  5 12  1  0
  6  9  4  0
  7 11  4  0
  7 24  4  0
  8 22  1  0
  9 30  4  0
 10 14  4  0
 10 30  4  0
 11 17  4  0
 12 27  1  0
 13 17  4  0
 13 34  4  0
 15 32  4  0
 15 33  4  0
 16 20  4  0
 16 21  4  0
 16 27  1  0
 18 33  4  0
 19 20  4  0
 19 31  4  0
 21 28  4  0
 22 26  1  0
 22 29  1  0
 23 26  1  0
 23 28  1  0
 24 34  4  0
 25 26  2  0
 28 31  4  0
 29 32  4  0
M  END
$$$$

 Created by Python create_sdf_string function

 34 55  0  0  0  0  0  0  0  0999 V2000
    4.4715   -7.1481   15.8929 O   0  0  0  0  0  0  0  0  0  0  0  0
    8.8141   -7.9729   17.2353 C   0  0  0  0  0  0  0  0  0  0  0  0
    1.0136   -9.2143   16.2083 C   0  0  0  0  0  0  0  0  0  0  0  0
   10.2910   -3.8899   26.2354 C   0  0  0  0  0  0  0  0  0  0  0  0
   11.2912   -3.5472   22.7279 C   0  0  0  0  0  0  0  0  0  0  0  0
    9.4588   -2.5577   26.2486 C   0  0  0  0  0  0  0  0  0  0  0  0
    0.2490  -10.0553   15.6946 C   0  0  0  0  0  0  0  0  0  0  0  0
    7.5644   -8.5691   17.1036 S   0  0  0  0  0  0  0  0  0  0  0  0
    9.4526   -1.7893   25.3559 C   0  0  0  0  0  0  0  0  0  0  0  0
   10.4276   -3.1022   24.0411 C   0  0  0  0  0  0  0  0  0  0  0  0
   -0.3809  -10.8407   16.4946 N   0  0  0  0  0  0  0  0  0  0  0  0
   10.4756   -3.6888   21.5191 C   0  0  0  0  0  0  0  0  0  0  0  0
   10.6621   -4.1528   24.7941 C   0  0  0  0  0  0  0  0  0  0  0  0
    3.0478   -9.6005   17.5663 C   0  0  0  0  0  0  0  0  0  0  0  0
   10.7689   -4.4022   18.8687 C   0  0  0  0  0  0  0  0  0  0  0  0
   -0.7359  -11.8437   15.5794 C   0  0  0  0  0  0  0  0  0  0  0  0
    3.4880   -7.6276   15.9359 C   0  0  0  0  0  0  0  0  0  0  0  0
   10.6082   -3.7367   16.9205 C   0  0  0  0  0  0  0  0  0  0  0  0
   11.3246   -3.5192   18.1209 C   0  0  0  0  0  0  0  0  0  0  0  0
    9.9848   -5.3980   18.7683 C   0  0  0  0  0  0  0  0  0  0  0  0
    6.8066   -7.8309   16.8098 N   0  0  0  0  0  0  0  0  0  0  0  0
    8.2656   -6.9647   16.5490 C   0  0  0  0  0  0  0  0  0  0  0  0
    0.7257  -10.0548   14.1471 C   0  0  0  0  0  0  0  0  0  0  0  0
    6.9192   -5.4871   15.4392 O   0  0  0  0  0  0  0  0  0  0  0  0
    7.2913   -6.4362   16.1570 C   0  0  0  0  0  0  0  0  0  0  0  0
   10.7749   -4.1524   20.2744 C   0  0  0  0  0  0  0  0  0  0  0  0
    9.3913   -5.5800   17.2527 C   0  0  0  0  0  0  0  0  0  0  0  0
    4.5844   -8.3477   16.4545 C   0  0  0  0  0  0  0  0  0  0  0  0
    9.6111   -1.9084   24.0499 C   0  0  0  0  0  0  0  0  0  0  0  0
   10.0322   -4.6217   16.4470 C   0  0  0  0  0  0  0  0  0  0  0  0
    4.4123   -9.0878   16.9499 C   0  0  0  0  0  0  0  0  0  0  0  0
   -0.7064  -11.9900   14.3449 He  0  0  0  0  0  0  0  0  0  0  0  0
    2.7557   -8.7732   16.3965 He  0  0  0  0  0  0  0  0  0  0  0  0
    0.0028  -10.9939   13.5443 He  0  0  0  0  0  0  0  0  0  0  0  0
  1 13  4  0
  1 28  4  0
  2  3  3  0
  2  8  1  0
  2 22  1  0
  2 31  2  0
  3  7  1  0
  3 18  2  0
  3 26  3  0
  4  6  4  0
  4  9  4  0
  4 13  4  0
  4 18  2  0
  5 12  1  0
  6  9  4  0
  6 22  1  0
  6 24  4  0
  6 26  3  0
  7 23  4  0
  7 24  1  0
  8 14  2  0
  8 21  1  0
  8 22  4  0
  8 24  4  0
  9 16  2  0
 10 13  4  0
 10 29  4  0
 11 16  4  0
 12 26  1  0
 14 15  3  0
 14 31  4  0
 15 19  4  0
 15 20  4  0
 15 22  2  0
 15 26  1  0
 15 30  1  0
 16 17  1  0
 16 19  2  0
 16 22  1  0
 16 25  1  0
 16 27  4  0
 18 19  4  0
 18 21  4  0
 18 30  4  0
 19 31  3  0
 20 22  4  0
 20 27  4  0
 21 25  1  0
 21 28  1  0
 22 25  1  0
 22 27  1  0
 26 29  4  0
 26 31  4  0
 27 30  4  0
 28 31  4  0
M  END
$$$$

 Created by Python create_sdf_string function

 34 38  0  0  0  0  0  0  0  0999 V2000
    4.2686   -7.3241   15.8749 C   0  0  0  0  0  0  0  0  0  0  0  0
    8.8074   -7.9742   17.2755 C   0  0  0  0  0  0  0  0  0  0  0  0
    1.0292   -8.8882   16.3583 C   0  0  0  0  0  0  0  0  0  0  0  0
   10.1584   -3.7865   26.1990 C   0  0  0  0  0  0  0  0  0  0  0  0
   11.2393   -3.4637   22.6334 C   0  0  0  0  0  0  0  0  0  0  0  0
    9.4744   -2.6063   26.3986 C   0  0  0  0  0  0  0  0  0  0  0  0
    0.4338   -9.9882   15.6264 C   0  0  0  0  0  0  0  0  0  0  0  0
    7.5032   -8.6771   17.1477 C   0  0  0  0  0  0  0  0  0  0  0  0
    9.2773   -1.7328   25.3369 C   0  0  0  0  0  0  0  0  0  0  0  0
   10.5453   -3.1924   23.9353 C   0  0  0  0  0  0  0  0  0  0  0  0
   -0.2972  -10.8847   16.3398 N   0  0  0  0  0  0  0  0  0  0  0  0
   10.3774   -3.7456   21.4537 C   0  0  0  0  0  0  0  0  0  0  0  0
   -0.7558  -11.9750   14.2760 C   0  0  0  0  0  0  0  0  0  0  0  0
   10.7162   -4.1106   24.9302 C   0  0  0  0  0  0  0  0  0  0  0  0
    3.2897   -9.5243   17.1843 C   0  0  0  0  0  0  0  0  0  0  0  0
   10.6520   -4.4066   18.9660 C   0  0  0  0  0  0  0  0  0  0  0  0
   -0.8950  -11.8708   15.6270 C   0  0  0  0  0  0  0  0  0  0  0  0
    3.0273   -7.6011   15.7998 C   0  0  0  0  0  0  0  0  0  0  0  0
   10.8152   -3.6141   16.7641 C   0  0  0  0  0  0  0  0  0  0  0  0
   11.1205   -3.4756   18.0882 C   0  0  0  0  0  0  0  0  0  0  0  0
    9.8754   -5.4499   18.5765 C   0  0  0  0  0  0  0  0  0  0  0  0
    6.5754   -7.7366   16.6132 N   0  0  0  0  0  0  0  0  0  0  0  0
    8.6259   -6.6633   16.7165 C   0  0  0  0  0  0  0  0  0  0  0  0
    0.5961  -10.0524   14.2308 C   0  0  0  0  0  0  0  0  0  0  0  0
    6.8607   -5.5887   15.4766 O   0  0  0  0  0  0  0  0  0  0  0  0
    7.2516   -6.5265   16.2197 C   0  0  0  0  0  0  0  0  0  0  0  0
   11.1597   -4.3042   20.3103 C   0  0  0  0  0  0  0  0  0  0  0  0
    9.4802   -5.5868   17.2099 C   0  0  0  0  0  0  0  0  0  0  0  0
    5.0938   -8.1295   16.6025 C   0  0  0  0  0  0  0  0  0  0  0  0
    9.8031   -2.0123   24.0760 C   0  0  0  0  0  0  0  0  0  0  0  0
    9.9161   -4.5985   16.3324 C   0  0  0  0  0  0  0  0  0  0  0  0
    4.5624   -9.2099   17.2739 C   0  0  0  0  0  0  0  0  0  0  0  0
    2.5073   -8.6794   16.4539 C   0  0  0  0  0  0  0  0  0  0  0  0
   -0.0389  -11.0818   13.5559 C   0  0  0  0  0  0  0  0  0  0  0  0
  1 18  4  0
  1 29  4  0
  2  8  1  0
  2 23  1  0
  3  7  1  0
  3 33  1  0
  4  6  4  0
  4 14  4  0
  5 10  1  0
  5 12  1  0
  6  9  4  0
  7 11  4  0
  7 24  4  0
  8 22  1  0
  9 30  4  0
 10 14  4  0
 10 30  4  0
 11 17  4  0
 12 27  1  0
 13 17  4  0
 13 34  4  0
 15 32  4  0
 15 33  4  0
 16 20  4  0
 16 21  4  0
 16 27  1  0
 18 33  4  0
 19 20  4  0
 19 31  4  0
 21 28  4  0
 22 26  1  0
 22 29  1  0
 23 26  1  0
 23 28  1  0
 24 34  4  0
 25 26  2  0
 28 31  4  0
 29 32  4  0
M  END
$$$$

 Created by Python create_sdf_string function

 34 60  0  0  0  0  0  0  0  0999 V2000
    4.2385   -7.3220   15.9177 C   0  0  0  0  0  0  0  0  0  0  0  0
    1.2270   -8.6666   16.5368 C   0  0  0  0  0  0  0  0  0  0  0  0
   10.1110   -3.9460   26.3248 C   0  0  0  0  0  0  0  0  0  0  0  0
   10.8642   -3.3636   22.2379 P   0  0  0  0  0  0  0  0  0  0  0  0
    9.5403   -2.4543   26.2966 C   0  0  0  0  0  0  0  0  0  0  0  0
    0.3626  -10.1381   15.7507 C   0  0  0  0  0  0  0  0  0  0  0  0
    7.5864   -8.8847   17.2024 C   0  0  0  0  0  0  0  0  0  0  0  0
    9.4031   -1.7363   25.2043 C   0  0  0  0  0  0  0  0  0  0  0  0
   10.4666   -3.0717   23.8973 C   0  0  0  0  0  0  0  0  0  0  0  0
   -0.2485  -10.9368   16.3468 N   0  0  0  0  0  0  0  0  0  0  0  0
   10.5028   -3.8016   21.5826 C   0  0  0  0  0  0  0  0  0  0  0  0
   -0.7522  -11.8896   14.1342 C   0  0  0  0  0  0  0  0  0  0  0  0
   10.8798   -4.0584   24.7933 C   0  0  0  0  0  0  0  0  0  0  0  0
    3.1651   -9.2987   17.1467 C   0  0  0  0  0  0  0  0  0  0  0  0
   10.6164   -4.6133   19.0116 C   0  0  0  0  0  0  0  0  0  0  0  0
   -0.8236  -11.7251   15.4819 C   0  0  0  0  0  0  0  0  0  0  0  0
    3.2451   -7.7353   15.8997 C   0  0  0  0  0  0  0  0  0  0  0  0
   10.7160   -3.4488   16.5763 C   0  0  0  0  0  0  0  0  0  0  0  0
   11.0648   -3.5327   17.9803 C   0  0  0  0  0  0  0  0  0  0  0  0
    9.9608   -5.2470   18.5880 C   0  0  0  0  0  0  0  0  0  0  0  0
    6.3688   -7.7245   16.6410 N   0  0  0  0  0  0  0  0  0  0  0  0
    8.4638   -6.4431   17.0830 C   0  0  0  0  0  0  0  0  0  0  0  0
    0.4905  -10.0617   14.1999 C   0  0  0  0  0  0  0  0  0  0  0  0
    6.7854   -5.5600   15.6384 O   0  0  0  0  0  0  0  0  0  0  0  0
    7.3446   -6.4889   16.1931 C   0  0  0  0  0  0  0  0  0  0  0  0
   11.1485   -4.0393   20.0786 C   0  0  0  0  0  0  0  0  0  0  0  0
    9.2346   -5.5907   17.2299 C   0  0  0  0  0  0  0  0  0  0  0  0
    9.8863   -1.9355   23.9583 C   0  0  0  0  0  0  0  0  0  0  0  0
   10.0341   -4.5031   16.3296 C   0  0  0  0  0  0  0  0  0  0  0  0
    4.7985   -9.2151   17.3507 C   0  0  0  0  0  0  0  0  0  0  0  0
    2.3271   -8.4901   16.4186 C   0  0  0  0  0  0  0  0  0  0  0  0
    0.1490  -11.2393   13.6559 C   0  0  0  0  0  0  0  0  0  0  0  0
    8.7972   -8.0017   17.2029 He  0  0  0  0  0  0  0  0  0  0  0  0
    5.0609   -7.6180   16.9623 He  0  0  0  0  0  0  0  0  0  0  0  0
  1  6  1  0
  1 10  3  0
  1 15  3  0
  1 17  4  0
  1 26  3  0
  2  6  1  0
  2 31  1  0
  3  5  4  0
  3 10  4  0
  3 13  4  0
  4  9  1  0
  4 14  4  0
  4 15  3  0
  5  9  3  0
  5 23  3  0
  5 25  4  0
  6 10  4  0
  6 22  2  0
  6 23  4  0
  7  8  3  0
  7 11  3  0
  7 21  4  0
  8 22  1  0
  8 28  4  0
  8 31  3  0
  9 13  4  0
  9 17  2  0
  9 28  4  0
 10 16  4  0
 11 15  4  0
 11 26  1  0
 11 28  2  0
 11 32  4  0
 12 32  4  0
 13 17  1  0
 14 17  4  0
 14 30  4  0
 14 31  4  0
 15 19  4  0
 15 20  4  0
 15 23  3  0
 15 24  1  0
 15 26  1  0
 17 29  2  0
 17 31  4  0
 18 19  4  0
 18 22  4  0
 18 29  4  0
 19 27  4  0
 19 28  2  0
 20 27  4  0
 20 30  2  0
 21 23  3  0
 21 25  1  0
 22 25  1  0
 22 31  3  0
 23 32  4  0
 24 25  2  0
 24 32  3  0
 26 32  4  0
M  END
$$$$

 Created by Python create_sdf_string function

 34 38  0  0  0  0  0  0  0  0999 V2000
    4.2420   -7.2704   15.8996 C   0  0  0  0  0  0  0  0  0  0  0  0
    8.8052   -7.9331   17.3147 C   0  0  0  0  0  0  0  0  0  0  0  0
    1.0159   -8.8403   16.4583 C   0  0  0  0  0  0  0  0  0  0  0  0
   10.2178   -3.7676   26.0866 C   0  0  0  0  0  0  0  0  0  0  0  0
   11.1956   -3.3667   22.5268 C   0  0  0  0  0  0  0  0  0  0  0  0
    9.5117   -2.5927   26.3225 C   0  0  0  0  0  0  0  0  0  0  0  0
    0.4490   -9.9376   15.6754 C   0  0  0  0  0  0  0  0  0  0  0  0
    7.5041   -8.6541   17.1688 C   0  0  0  0  0  0  0  0  0  0  0  0
    9.3363   -1.6579   25.2902 C   0  0  0  0  0  0  0  0  0  0  0  0
   10.5304   -3.1069   23.8297 C   0  0  0  0  0  0  0  0  0  0  0  0
   -0.3257  -10.8461   16.3106 N   0  0  0  0  0  0  0  0  0  0  0  0
   10.4599   -3.8749   21.4078 C   0  0  0  0  0  0  0  0  0  0  0  0
   -0.7162  -11.9319   14.2196 C   0  0  0  0  0  0  0  0  0  0  0  0
   10.7216   -4.0451   24.8129 C   0  0  0  0  0  0  0  0  0  0  0  0
    3.2891   -9.3584   17.2256 C   0  0  0  0  0  0  0  0  0  0  0  0
   10.7266   -4.2863   18.8701 C   0  0  0  0  0  0  0  0  0  0  0  0
   -0.9006  -11.8288   15.5809 C   0  0  0  0  0  0  0  0  0  0  0  0
    2.9956   -7.5362   15.8616 C   0  0  0  0  0  0  0  0  0  0  0  0
   10.7234   -3.5734   16.6188 C   0  0  0  0  0  0  0  0  0  0  0  0
   11.1211   -3.3881   17.9359 C   0  0  0  0  0  0  0  0  0  0  0  0
    9.8794   -5.3481   18.5764 C   0  0  0  0  0  0  0  0  0  0  0  0
    6.5203   -7.6999   16.7293 N   0  0  0  0  0  0  0  0  0  0  0  0
    8.5496   -6.5769   16.8772 C   0  0  0  0  0  0  0  0  0  0  0  0
    0.6903  -10.0400   14.2731 C   0  0  0  0  0  0  0  0  0  0  0  0
    6.8007   -5.5960   15.5628 O   0  0  0  0  0  0  0  0  0  0  0  0
    7.1911   -6.4931   16.3690 C   0  0  0  0  0  0  0  0  0  0  0  0
   11.2964   -4.1175   20.1617 C   0  0  0  0  0  0  0  0  0  0  0  0
    9.4336   -5.5184   17.2604 C   0  0  0  0  0  0  0  0  0  0  0  0
    5.1420   -8.0224   16.6368 C   0  0  0  0  0  0  0  0  0  0  0  0
    9.8355   -1.9163   24.0063 C   0  0  0  0  0  0  0  0  0  0  0  0
    9.8233   -4.5851   16.2898 C   0  0  0  0  0  0  0  0  0  0  0  0
    4.5417   -9.0713   17.3171 C   0  0  0  0  0  0  0  0  0  0  0  0
    2.4413   -8.6091   16.4937 C   0  0  0  0  0  0  0  0  0  0  0  0
    0.0617  -11.0222   13.5605 C   0  0  0  0  0  0  0  0  0  0  0  0
  1 18  4  0
  1 29  4  0
  2  8  1  0
  2 23  1  0
  3  7  1  0
  3 33  1  0
  4  6  4  0
  4 14  4  0
  5 10  1  0
  5 12  1  0
  6  9  4  0
  7 11  4  0
  7 24  4  0
  8 22  1  0
  9 30  4  0
 10 14  4  0
 10 30  4  0
 11 17  4  0
 12 27  1  0
 13 17  4  0
 13 34  4  0
 15 32  4  0
 15 33  4  0
 16 20  4  0
 16 21  4  0
 16 27  1  0
 18 33  4  0
 19 20  4  0
 19 31  4  0
 21 28  4  0
 22 26  1  0
 22 29  1  0
 23 26  1  0
 23 28  1  0
 24 34  4  0
 25 26  2  0
 28 31  4  0
 29 32  4  0
M  END
$$$$

 Created by Python create_sdf_string function

 34 51  0  0  0  0  0  0  0  0999 V2000
    4.1645   -7.2813   16.1267 C   0  0  0  0  0  0  0  0  0  0  0  0
    8.6358   -7.6045   17.3093 P   0  0  0  0  0  0  0  0  0  0  0  0
    0.8296   -9.1460   16.8127 C   0  0  0  0  0  0  0  0  0  0  0  0
   10.0974   -3.7369   26.0806 C   0  0  0  0  0  0  0  0  0  0  0  0
   11.1114   -3.4715   22.2239 C   0  0  0  0  0  0  0  0  0  0  0  0
    9.6713   -2.4663   26.2291 C   0  0  0  0  0  0  0  0  0  0  0  0
    0.5612   -9.8787   15.8465 C   0  0  0  0  0  0  0  0  0  0  0  0
    7.6382   -8.7377   17.1515 Cl  0  0  0  0  0  0  0  0  0  0  0  0
    9.1156   -1.6633   25.4357 S   0  0  0  0  0  0  0  0  0  0  0  0
   -0.2660  -10.8113   16.4216 O   0  0  0  0  0  0  0  0  0  0  0  0
   10.5239   -3.9211   21.5803 C   0  0  0  0  0  0  0  0  0  0  0  0
   -0.5110  -12.0609   14.0933 C   0  0  0  0  0  0  0  0  0  0  0  0
   10.6236   -4.0635   24.6931 C   0  0  0  0  0  0  0  0  0  0  0  0
    2.6752   -9.2593   17.2528 C   0  0  0  0  0  0  0  0  0  0  0  0
   -0.9290  -11.9796   15.6139 C   0  0  0  0  0  0  0  0  0  0  0  0
    3.0231   -7.3928   15.6872 C   0  0  0  0  0  0  0  0  0  0  0  0
   10.8393   -3.4459   16.5351 C   0  0  0  0  0  0  0  0  0  0  0  0
   11.1267   -3.3034   17.8305 C   0  0  0  0  0  0  0  0  0  0  0  0
   10.0620   -5.4208   18.1414 C   0  0  0  0  0  0  0  0  0  0  0  0
    6.4831   -7.7853   16.9029 N   0  0  0  0  0  0  0  0  0  0  0  0
    8.8124   -6.8862   17.0979 C   0  0  0  0  0  0  0  0  0  0  0  0
    0.6667  -10.0013   14.2873 C   0  0  0  0  0  0  0  0  0  0  0  0
    6.8138   -5.7266   15.3188 O   0  0  0  0  0  0  0  0  0  0  0  0
    7.0747   -6.4227   16.3801 C   0  0  0  0  0  0  0  0  0  0  0  0
   11.3285   -3.6376   20.1555 C   0  0  0  0  0  0  0  0  0  0  0  0
    9.5929   -5.3050   16.9629 C   0  0  0  0  0  0  0  0  0  0  0  0
    5.1094   -8.0938   16.5207 C   0  0  0  0  0  0  0  0  0  0  0  0
    9.8799   -1.9525   23.8407 C   0  0  0  0  0  0  0  0  0  0  0  0
   -0.0051  -10.8674   13.5853 C   0  0  0  0  0  0  0  0  0  0  0  0
   10.5103   -3.0644   23.8538 He  0  0  0  0  0  0  0  0  0  0  0  0
   10.7522   -3.9422   19.1855 He  0  0  0  0  0  0  0  0  0  0  0  0
    9.7348   -4.7086   16.1733 He  0  0  0  0  0  0  0  0  0  0  0  0
    4.6026   -9.0952   17.8036 He  0  0  0  0  0  0  0  0  0  0  0  0
    2.5033   -8.9053   16.3863 He  0  0  0  0  0  0  0  0  0  0  0  0
  1 10  4  0
  1 14  4  0
  1 16  4  0
  1 27  4  0
  2  8  1  0
  2 15  4  0
  2 19  1  0
  2 21  1  0
  2 27  1  0
  3  7  1  0
  3 23  1  0
  4 13  4  0
  4 19  3  0
  4 20  3  0
  4 24  3  0
  5 11  1  0
  6  9  4  0
  6 10  3  0
  6 20  2  0
  6 23  2  0
  7 10  4  0
  7 13  1  0
  7 16  4  0
  7 21  1  0
  7 22  4  0
  8 16  3  0
  8 20  1  0
  9 11  4  0
  9 17  4  0
  9 28  4  0
 10 15  4  0
 10 20  2  0
 11 25  3  0
 12 15  4  0
 12 29  4  0
 14 20  2  0
 15 17  2  0
 15 28  4  0
 17 18  4  0
 17 26  3  0
 18 23  4  0
 19 26  4  0
 20 24  1  0
 20 27  1  0
 21 24  1  0
 21 26  1  0
 21 28  2  0
 22 23  2  0
 22 29  4  0
 23 24  2  0
 24 27  2  0
M  END
$$$$

 Created by Python create_sdf_string function

 34 38  0  0  0  0  0  0  0  0999 V2000
    4.2272   -7.3115   15.9355 C   0  0  0  0  0  0  0  0  0  0  0  0
    8.7925   -7.8385   17.4481 C   0  0  0  0  0  0  0  0  0  0  0  0
    0.9810   -8.9010   16.5829 C   0  0  0  0  0  0  0  0  0  0  0  0
   10.1804   -3.7416   26.0306 C   0  0  0  0  0  0  0  0  0  0  0  0
   11.2585   -3.2969   22.4831 C   0  0  0  0  0  0  0  0  0  0  0  0
    9.4823   -2.5596   26.2609 C   0  0  0  0  0  0  0  0  0  0  0  0
    0.4212   -9.9552   15.7497 C   0  0  0  0  0  0  0  0  0  0  0  0
    7.4954   -8.5853   17.2845 C   0  0  0  0  0  0  0  0  0  0  0  0
    9.3176   -1.6425   25.2209 C   0  0  0  0  0  0  0  0  0  0  0  0
   10.5383   -3.0958   23.7714 C   0  0  0  0  0  0  0  0  0  0  0  0
   -0.3236  -10.9608   16.3226 C   0  0  0  0  0  0  0  0  0  0  0  0
   10.5383   -3.9012   21.3257 C   0  0  0  0  0  0  0  0  0  0  0  0
   -0.6673  -11.9007   14.1655 C   0  0  0  0  0  0  0  0  0  0  0  0
   10.6892   -4.0325   24.7586 C   0  0  0  0  0  0  0  0  0  0  0  0
    3.2783   -9.3806   17.3696 C   0  0  0  0  0  0  0  0  0  0  0  0
   10.7716   -4.1158   18.7595 C   0  0  0  0  0  0  0  0  0  0  0  0
   -0.8571  -11.9223   15.5190 C   0  0  0  0  0  0  0  0  0  0  0  0
    2.9484   -7.5753   15.8870 C   0  0  0  0  0  0  0  0  0  0  0  0
   10.6841   -3.5048   16.4733 C   0  0  0  0  0  0  0  0  0  0  0  0
   11.1194   -3.2409   17.7734 C   0  0  0  0  0  0  0  0  0  0  0  0
    9.9563   -5.2215   18.4908 C   0  0  0  0  0  0  0  0  0  0  0  0
    6.5276   -7.6841   16.7647 N   0  0  0  0  0  0  0  0  0  0  0  0
    8.5996   -6.5721   16.8872 C   0  0  0  0  0  0  0  0  0  0  0  0
    0.6433   -9.9522   14.3383 C   0  0  0  0  0  0  0  0  0  0  0  0
    6.8017   -5.6967   15.5020 O   0  0  0  0  0  0  0  0  0  0  0  0
    7.2234   -6.5383   16.3066 C   0  0  0  0  0  0  0  0  0  0  0  0
   11.3083   -3.7991   20.1073 C   0  0  0  0  0  0  0  0  0  0  0  0
    9.4866   -5.4786   17.1985 C   0  0  0  0  0  0  0  0  0  0  0  0
    5.1250   -8.0075   16.7239 C   0  0  0  0  0  0  0  0  0  0  0  0
    9.8150   -1.9283   23.9347 C   0  0  0  0  0  0  0  0  0  0  0  0
    9.8513   -4.5863   16.1919 C   0  0  0  0  0  0  0  0  0  0  0  0
    4.5732   -9.0434   17.4429 C   0  0  0  0  0  0  0  0  0  0  0  0
    2.4131   -8.6328   16.6240 C   0  0  0  0  0  0  0  0  0  0  0  0
    0.0778  -10.9305   13.5746 C   0  0  0  0  0  0  0  0  0  0  0  0
  1 18  4  0
  1 29  4  0
  2  8  1  0
  2 23  1  0
  3  7  1  0
  3 33  1  0
  4  6  4  0
  4 14  4  0
  5 10  1  0
  5 12  1  0
  6  9  4  0
  7 11  4  0
  7 24  4  0
  8 22  1  0
  9 30  4  0
 10 14  4  0
 10 30  4  0
 11 17  4  0
 12 27  1  0
 13 17  4  0
 13 34  4  0
 15 32  4  0
 15 33  4  0
 16 20  4  0
 16 21  4  0
 16 27  1  0
 18 33  4  0
 19 20  4  0
 19 31  4  0
 21 28  4  0
 22 26  1  0
 22 29  1  0
 23 26  1  0
 23 28  1  0
 24 34  4  0
 25 26  2  0
 28 31  4  0
 29 32  4  0
M  END
$$$$

 Created by Python create_sdf_string function

 34 61  0  0  0  0  0  0  0  0999 V2000
    4.2779   -7.4700   15.8740 C   0  0  0  0  0  0  0  0  0  0  0  0
    8.6838   -7.9040   17.5094 C   0  0  0  0  0  0  0  0  0  0  0  0
    1.1222   -8.7796   16.5159 C   0  0  0  0  0  0  0  0  0  0  0  0
   10.2204   -3.5311   25.9400 C   0  0  0  0  0  0  0  0  0  0  0  0
   11.0310   -2.8575   22.4348 C   0  0  0  0  0  0  0  0  0  0  0  0
    9.5694   -2.5542   26.4004 C   0  0  0  0  0  0  0  0  0  0  0  0
    0.4025  -10.0950   15.6530 C   0  0  0  0  0  0  0  0  0  0  0  0
    9.3121   -1.5136   25.1752 C   0  0  0  0  0  0  0  0  0  0  0  0
   -0.3327  -10.9721   16.2492 C   0  0  0  0  0  0  0  0  0  0  0  0
   10.6266   -3.5153   21.3141 C   0  0  0  0  0  0  0  0  0  0  0  0
   10.7975   -3.8565   24.8225 C   0  0  0  0  0  0  0  0  0  0  0  0
    3.2734   -9.4592   17.4756 C   0  0  0  0  0  0  0  0  0  0  0  0
   10.7631   -4.2436   18.5320 C   0  0  0  0  0  0  0  0  0  0  0  0
   -0.9165  -11.7864   15.5346 C   0  0  0  0  0  0  0  0  0  0  0  0
    3.0437   -7.6741   15.7265 C   0  0  0  0  0  0  0  0  0  0  0  0
   10.8724   -3.6452   16.6212 C   0  0  0  0  0  0  0  0  0  0  0  0
   11.2184   -3.3181   17.9280 F   0  0  0  0  0  0  0  0  0  0  0  0
    9.9444   -5.2669   18.4109 C   0  0  0  0  0  0  0  0  0  0  0  0
    6.4951   -8.0522   16.6471 N   0  0  0  0  0  0  0  0  0  0  0  0
    8.7062   -6.4395   16.8957 C   0  0  0  0  0  0  0  0  0  0  0  0
    0.6027   -9.9421   14.4019 C   0  0  0  0  0  0  0  0  0  0  0  0
    6.6956   -5.5441   15.4777 O   0  0  0  0  0  0  0  0  0  0  0  0
    7.1069   -6.7425   16.5255 C   0  0  0  0  0  0  0  0  0  0  0  0
   11.3691   -3.6558   19.8967 C   0  0  0  0  0  0  0  0  0  0  0  0
    9.4282   -5.4917   17.1474 C   0  0  0  0  0  0  0  0  0  0  0  0
    5.2478   -7.9709   16.8192 F   0  0  0  0  0  0  0  0  0  0  0  0
    9.6837   -1.9769   23.7088 C   0  0  0  0  0  0  0  0  0  0  0  0
    9.9580   -4.6479   16.1881 C   0  0  0  0  0  0  0  0  0  0  0  0
    4.5430   -9.1578   17.3264 Br  0  0  0  0  0  0  0  0  0  0  0  0
    2.1134   -8.4941   16.3708 C   0  0  0  0  0  0  0  0  0  0  0  0
   -0.0396  -10.9512   13.7855 C   0  0  0  0  0  0  0  0  0  0  0  0
    7.4547   -8.8025   17.2487 He  0  0  0  0  0  0  0  0  0  0  0  0
   10.3723   -3.0048   23.6071 He  0  0  0  0  0  0  0  0  0  0  0  0
   -0.7335  -12.1116   14.1585 He  0  0  0  0  0  0  0  0  0  0  0  0
  1 17  4  0
  1 22  1  0
  1 26  4  0
  2 20  1  0
  2 27  4  0
  3  7  1  0
  3 21  2  0
  3 30  1  0
  4  6  4  0
  4 11  4  0
  4 20  4  0
  5  7  2  0
  5 10  1  0
  5 14  1  0
  6  8  4  0
  6 22  3  0
  6 25  4  0
  6 29  1  0
  6 31  4  0
  7  9  4  0
  7 15  4  0
  7 21  4  0
  8 11  3  0
  8 15  2  0
  8 31  3  0
  9 15  2  0
  9 28  3  0
 10 24  1  0
 10 29  4  0
 10 30  4  0
 12 16  3  0
 12 29  4  0
 12 30  4  0
 13 17  2  0
 13 18  4  0
 15 30  2  0
 16 17  4  0
 16 22  1  0
 16 26  1  0
 16 28  4  0
 17 25  4  0
 17 28  4  0
 17 30  4  0
 18 25  4  0
 18 26  2  0
 19 22  3  0
 19 23  1  0
 19 26  1  0
 20 23  1  0
 20 25  4  0
 20 28  3  0
 20 29  4  0
 20 30  1  0
 21 31  4  0
 22 23  2  0
 23 24  4  0
 24 29  4  0
 24 30  4  0
 25 27  3  0
 25 28  4  0
 26 29  4  0
M  END
$$$$

 Created by Python create_sdf_string function

 34 38  0  0  0  0  0  0  0  0999 V2000
    4.2930   -7.3784   15.8399 C   0  0  0  0  0  0  0  0  0  0  0  0
    8.7315   -7.9003   17.5310 C   0  0  0  0  0  0  0  0  0  0  0  0
    1.0023   -8.8646   16.5242 C   0  0  0  0  0  0  0  0  0  0  0  0
   10.2976   -3.6117   25.9475 C   0  0  0  0  0  0  0  0  0  0  0  0
   11.2406   -3.0322   22.3895 C   0  0  0  0  0  0  0  0  0  0  0  0
    9.5229   -2.4865   26.2274 C   0  0  0  0  0  0  0  0  0  0  0  0
    0.3991   -9.9404   15.7307 C   0  0  0  0  0  0  0  0  0  0  0  0
    7.4920   -8.6603   17.2970 C   0  0  0  0  0  0  0  0  0  0  0  0
    9.2022   -1.5865   25.1920 C   0  0  0  0  0  0  0  0  0  0  0  0
   10.5226   -2.8986   23.6904 C   0  0  0  0  0  0  0  0  0  0  0  0
   -0.3687  -10.9184   16.3472 C   0  0  0  0  0  0  0  0  0  0  0  0
   10.4949   -3.6682   21.2547 C   0  0  0  0  0  0  0  0  0  0  0  0
   -0.7801  -11.9305   14.2288 C   0  0  0  0  0  0  0  0  0  0  0  0
   10.7730   -3.8516   24.6651 C   0  0  0  0  0  0  0  0  0  0  0  0
    3.2649   -9.3889   17.3212 C   0  0  0  0  0  0  0  0  0  0  0  0
   10.7771   -4.1520   18.7118 C   0  0  0  0  0  0  0  0  0  0  0  0
   -0.9436  -11.9074   15.5811 C   0  0  0  0  0  0  0  0  0  0  0  0
    3.0133   -7.5885   15.7942 C   0  0  0  0  0  0  0  0  0  0  0  0
   10.7950   -3.6236   16.4262 C   0  0  0  0  0  0  0  0  0  0  0  0
   11.2061   -3.3419   17.7125 N   0  0  0  0  0  0  0  0  0  0  0  0
    9.9290   -5.2280   18.4956 C   0  0  0  0  0  0  0  0  0  0  0  0
    6.5413   -7.7927   16.7277 N   0  0  0  0  0  0  0  0  0  0  0  0
    8.5489   -6.5673   16.9235 C   0  0  0  0  0  0  0  0  0  0  0  0
    0.5906   -9.9937   14.3292 C   0  0  0  0  0  0  0  0  0  0  0  0
    6.7704   -5.6791   15.5816 O   0  0  0  0  0  0  0  0  0  0  0  0
    7.1996   -6.5787   16.3300 C   0  0  0  0  0  0  0  0  0  0  0  0
   11.3370   -3.8193   20.0190 C   0  0  0  0  0  0  0  0  0  0  0  0
    9.4748   -5.5038   17.2086 C   0  0  0  0  0  0  0  0  0  0  0  0
    5.1610   -8.1190   16.6436 C   0  0  0  0  0  0  0  0  0  0  0  0
    9.7048   -1.7929   23.8865 C   0  0  0  0  0  0  0  0  0  0  0  0
    9.8978   -4.6723   16.1904 C   0  0  0  0  0  0  0  0  0  0  0  0
    4.5453   -9.1239   17.3708 C   0  0  0  0  0  0  0  0  0  0  0  0
    2.4409   -8.6392   16.5452 C   0  0  0  0  0  0  0  0  0  0  0  0
   -0.0195  -10.9901   13.5858 C   0  0  0  0  0  0  0  0  0  0  0  0
  1 18  4  0
  1 29  4  0
  2  8  1  0
  2 23  1  0
  3  7  1  0
  3 33  1  0
  4  6  4  0
  4 14  4  0
  5 10  1  0
  5 12  1  0
  6  9  4  0
  7 11  4  0
  7 24  4  0
  8 22  1  0
  9 30  4  0
 10 14  4  0
 10 30  4  0
 11 17  4  0
 12 27  1  0
 13 17  4  0
 13 34  4  0
 15 32  4  0
 15 33  4  0
 16 20  4  0
 16 21  4  0
 16 27  1  0
 18 33  4  0
 19 20  4  0
 19 31  4  0
 21 28  4  0
 22 26  1  0
 22 29  1  0
 23 26  1  0
 23 28  1  0
 24 34  4  0
 25 26  2  0
 28 31  4  0
 29 32  4  0
M  END
$$$$

 Created by Python create_sdf_string function

 34 44  0  0  0  0  0  0  0  0999 V2000
    8.5252   -7.7432   17.5700 C   0  0  0  0  0  0  0  0  0  0  0  0
    1.2081   -8.8085   16.5261 C   0  0  0  0  0  0  0  0  0  0  0  0
   10.2293   -3.6741   25.8981 C   0  0  0  0  0  0  0  0  0  0  0  0
   11.3988   -3.1913   22.3920 C   0  0  0  0  0  0  0  0  0  0  0  0
    9.4662   -2.4520   26.2808 C   0  0  0  0  0  0  0  0  0  0  0  0
    0.3526  -10.0323   15.7498 C   0  0  0  0  0  0  0  0  0  0  0  0
    7.5217   -8.8129   17.1932 C   0  0  0  0  0  0  0  0  0  0  0  0
    9.3639   -1.4681   25.3433 C   0  0  0  0  0  0  0  0  0  0  0  0
   10.6521   -2.5819   23.5545 C   0  0  0  0  0  0  0  0  0  0  0  0
   -0.3089  -10.7070   16.2186 C   0  0  0  0  0  0  0  0  0  0  0  0
   10.6923   -3.7487   21.3691 C   0  0  0  0  0  0  0  0  0  0  0  0
   -0.7522  -11.7249   14.2791 C   0  0  0  0  0  0  0  0  0  0  0  0
   10.6227   -3.8634   24.8144 C   0  0  0  0  0  0  0  0  0  0  0  0
    3.3128   -9.5977   17.5766 C   0  0  0  0  0  0  0  0  0  0  0  0
   -0.8880  -12.0370   15.6360 C   0  0  0  0  0  0  0  0  0  0  0  0
   10.9042   -3.7618   16.5555 C   0  0  0  0  0  0  0  0  0  0  0  0
   11.1405   -3.2655   17.5682 N   0  0  0  0  0  0  0  0  0  0  0  0
    9.8380   -5.2008   18.5176 C   0  0  0  0  0  0  0  0  0  0  0  0
    6.7572   -7.9733   16.8405 N   0  0  0  0  0  0  0  0  0  0  0  0
    8.3876   -6.8718   16.6833 C   0  0  0  0  0  0  0  0  0  0  0  0
    0.4777  -10.0935   14.4125 C   0  0  0  0  0  0  0  0  0  0  0  0
    6.5580   -5.7636   15.3297 O   0  0  0  0  0  0  0  0  0  0  0  0
    7.1874   -6.4822   16.3191 C   0  0  0  0  0  0  0  0  0  0  0  0
   10.8933   -3.8311   19.9520 C   0  0  0  0  0  0  0  0  0  0  0  0
    9.4361   -5.5726   17.3623 C   0  0  0  0  0  0  0  0  0  0  0  0
    5.1565   -8.0774   16.7535 C   0  0  0  0  0  0  0  0  0  0  0  0
    9.4691   -1.6826   23.9609 C   0  0  0  0  0  0  0  0  0  0  0  0
    9.8966   -4.7455   16.1645 C   0  0  0  0  0  0  0  0  0  0  0  0
    4.3436   -9.1219   17.3932 Cl  0  0  0  0  0  0  0  0  0  0  0  0
    2.1203   -8.7531   16.4246 C   0  0  0  0  0  0  0  0  0  0  0  0
   -0.0302  -10.9552   13.3540 C   0  0  0  0  0  0  0  0  0  0  0  0
    4.4030   -7.3118   15.9296 He  0  0  0  0  0  0  0  0  0  0  0  0
   10.9177   -4.2968   18.4977 He  0  0  0  0  0  0  0  0  0  0  0  0
    3.2280   -7.4364   15.8097 He  0  0  0  0  0  0  0  0  0  0  0  0
  1  7  1  0
  1 20  1  0
  2  6  1  0
  2 13  1  0
  2 14  2  0
  2 16  3  0
  2 30  1  0
  3 13  4  0
  4  8  1  0
  4  9  4  0
  4 11  1  0
  4 15  4  0
  5  8  4  0
  5 31  2  0
  6 10  4  0
  6 21  4  0
  6 29  2  0
  7 19  1  0
  8 25  3  0
  8 27  2  0
  9 13  4  0
  9 23  2  0
 10 15  4  0
 10 29  2  0
 11 24  1  0
 12 15  4  0
 12 31  4  0
 14 29  4  0
 14 30  4  0
 15 20  2  0
 16 17  4  0
 16 28  4  0
 17 19  4  0
 17 28  3  0
 18 25  4  0
 18 30  2  0
 19 23  1  0
 19 26  1  0
 20 23  1  0
 20 25  1  0
 21 31  3  0
 22 23  2  0
 26 29  4  0
 26 31  4  0
M  END
$$$$

 Created by Python create_sdf_string function

 34 38  0  0  0  0  0  0  0  0999 V2000
    4.2888   -7.3102   15.9278 C   0  0  0  0  0  0  0  0  0  0  0  0
    8.7027   -7.8702   17.5929 C   0  0  0  0  0  0  0  0  0  0  0  0
    1.0411   -8.8514   16.4780 C   0  0  0  0  0  0  0  0  0  0  0  0
   10.1917   -3.6093   25.9674 C   0  0  0  0  0  0  0  0  0  0  0  0
   11.2569   -3.0317   22.4078 C   0  0  0  0  0  0  0  0  0  0  0  0
    9.4541   -2.4432   26.2394 C   0  0  0  0  0  0  0  0  0  0  0  0
    0.4201   -9.9084   15.6930 C   0  0  0  0  0  0  0  0  0  0  0  0
    7.4948   -8.6757   17.3050 C   0  0  0  0  0  0  0  0  0  0  0  0
    9.2274   -1.5028   25.2400 C   0  0  0  0  0  0  0  0  0  0  0  0
   10.5309   -2.8677   23.7395 C   0  0  0  0  0  0  0  0  0  0  0  0
   -0.3368  -10.8840   16.3231 C   0  0  0  0  0  0  0  0  0  0  0  0
   10.5400   -3.7836   21.3139 C   0  0  0  0  0  0  0  0  0  0  0  0
   -0.7994  -11.8905   14.2124 C   0  0  0  0  0  0  0  0  0  0  0  0
   10.7367   -3.8216   24.6796 C   0  0  0  0  0  0  0  0  0  0  0  0
    3.3013   -9.4125   17.3277 C   0  0  0  0  0  0  0  0  0  0  0  0
   10.6755   -4.1600   18.6579 C   0  0  0  0  0  0  0  0  0  0  0  0
   -0.9575  -11.8659   15.5605 C   0  0  0  0  0  0  0  0  0  0  0  0
    3.0227   -7.5561   15.8503 C   0  0  0  0  0  0  0  0  0  0  0  0
   10.7983   -3.6945   16.3960 C   0  0  0  0  0  0  0  0  0  0  0  0
   11.1586   -3.4138   17.6845 N   0  0  0  0  0  0  0  0  0  0  0  0
    9.8654   -5.2278   18.4668 C   0  0  0  0  0  0  0  0  0  0  0  0
    6.5327   -7.8064   16.7340 N   0  0  0  0  0  0  0  0  0  0  0  0
    8.5252   -6.6083   16.8517 C   0  0  0  0  0  0  0  0  0  0  0  0
    0.5640   -9.9536   14.2943 C   0  0  0  0  0  0  0  0  0  0  0  0
    6.7266   -5.7766   15.4488 O   0  0  0  0  0  0  0  0  0  0  0  0
    7.1877   -6.6280   16.2481 C   0  0  0  0  0  0  0  0  0  0  0  0
   11.1739   -3.7462   19.9684 C   0  0  0  0  0  0  0  0  0  0  0  0
    9.4555   -5.5436   17.1486 C   0  0  0  0  0  0  0  0  0  0  0  0
    5.1666   -8.0916   16.6898 C   0  0  0  0  0  0  0  0  0  0  0  0
    9.7643   -1.6859   23.9585 C   0  0  0  0  0  0  0  0  0  0  0  0
    9.9040   -4.7441   16.1205 C   0  0  0  0  0  0  0  0  0  0  0  0
    4.5982   -9.1280   17.3818 C   0  0  0  0  0  0  0  0  0  0  0  0
    2.4820   -8.6255   16.5594 C   0  0  0  0  0  0  0  0  0  0  0  0
   -0.0676  -10.9402   13.5536 C   0  0  0  0  0  0  0  0  0  0  0  0
  1 18  4  0
  1 29  4  0
  2  8  1  0
  2 23  1  0
  3  7  1  0
  3 33  1  0
  4  6  4  0
  4 14  4  0
  5 10  1  0
  5 12  1  0
  6  9  4  0
  7 11  4  0
  7 24  4  0
  8 22  1  0
  9 30  4  0
 10 14  4  0
 10 30  4  0
 11 17  4  0
 12 27  1  0
 13 17  4  0
 13 34  4  0
 15 32  4  0
 15 33  4  0
 16 20  4  0
 16 21  4  0
 16 27  1  0
 18 33  4  0
 19 20  4  0
 19 31  4  0
 21 28  4  0
 22 26  1  0
 22 29  1  0
 23 26  1  0
 23 28  1  0
 24 34  4  0
 25 26  2  0
 28 31  4  0
 29 32  4  0
M  END
$$$$

 Created by Python create_sdf_string function

 34 63  0  0  0  0  0  0  0  0999 V2000
    4.2698   -7.2795   16.0136 C   0  0  0  0  0  0  0  0  0  0  0  0
    8.2994   -7.7378   17.7310 C   0  0  0  0  0  0  0  0  0  0  0  0
    0.9439   -9.0823   16.4358 F   0  0  0  0  0  0  0  0  0  0  0  0
   10.4048   -3.4003   26.0407 C   0  0  0  0  0  0  0  0  0  0  0  0
   11.3129   -3.0461   22.4275 C   0  0  0  0  0  0  0  0  0  0  0  0
    9.5380   -2.5992   26.2218 C   0  0  0  0  0  0  0  0  0  0  0  0
    0.4704   -9.7655   15.6293 C   0  0  0  0  0  0  0  0  0  0  0  0
    7.6597   -8.6889   17.2122 C   0  0  0  0  0  0  0  0  0  0  0  0
    9.2762   -1.5629   25.2776 C   0  0  0  0  0  0  0  0  0  0  0  0
   10.4832   -2.9054   23.7220 C   0  0  0  0  0  0  0  0  0  0  0  0
   -0.1879  -10.9652   16.4185 C   0  0  0  0  0  0  0  0  0  0  0  0
   10.5275   -3.7444   21.1972 C   0  0  0  0  0  0  0  0  0  0  0  0
   -0.7283  -11.8892   14.2396 C   0  0  0  0  0  0  0  0  0  0  0  0
   10.6313   -3.9031   24.5742 C   0  0  0  0  0  0  0  0  0  0  0  0
    3.3954   -9.5058   17.4749 C   0  0  0  0  0  0  0  0  0  0  0  0
   10.8422   -4.2150   18.6909 F   0  0  0  0  0  0  0  0  0  0  0  0
   -0.9090  -11.6945   15.4147 C   0  0  0  0  0  0  0  0  0  0  0  0
    3.2639   -7.5760   15.6660 O   0  0  0  0  0  0  0  0  0  0  0  0
   10.7226   -3.6545   16.3337 O   0  0  0  0  0  0  0  0  0  0  0  0
   11.0740   -3.3680   17.6195 N   0  0  0  0  0  0  0  0  0  0  0  0
    9.7751   -5.0747   18.2706 C   0  0  0  0  0  0  0  0  0  0  0  0
    6.7596   -7.8149   16.8459 N   0  0  0  0  0  0  0  0  0  0  0  0
    8.6045   -6.9272   16.5438 C   0  0  0  0  0  0  0  0  0  0  0  0
    0.4247   -9.8958   14.2666 C   0  0  0  0  0  0  0  0  0  0  0  0
    6.7015   -5.8241   15.3699 O   0  0  0  0  0  0  0  0  0  0  0  0
    7.2621   -6.7932   16.3242 C   0  0  0  0  0  0  0  0  0  0  0  0
   11.2100   -3.6695   20.0508 C   0  0  0  0  0  0  0  0  0  0  0  0
    9.3920   -5.4935   17.1550 C   0  0  0  0  0  0  0  0  0  0  0  0
    5.2669   -8.2127   17.0824 C   0  0  0  0  0  0  0  0  0  0  0  0
    9.7673   -4.5958   16.2151 C   0  0  0  0  0  0  0  0  0  0  0  0
    4.4939   -9.2211   17.4233 C   0  0  0  0  0  0  0  0  0  0  0  0
    2.4632   -8.8785   16.5290 C   0  0  0  0  0  0  0  0  0  0  0  0
   -0.0971  -11.0473   13.5811 C   0  0  0  0  0  0  0  0  0  0  0  0
    9.9984   -1.6286   23.7528 He  0  0  0  0  0  0  0  0  0  0  0  0
  1 14  2  0
  1 18  1  0
  1 29  4  0
  2  8  1  0
  2 19  2  0
  2 22  2  0
  2 23  1  0
  2 32  1  0
  2 33  1  0
  3  6  1  0
  3  7  1  0
  3  9  3  0
  3 13  3  0
  3 14  4  0
  3 32  1  0
  4  6  4  0
  4 14  4  0
  5  9  4  0
  5 10  1  0
  5 12  1  0
  6  9  4  0
  6 31  2  0
  7 24  4  0
  7 27  2  0
  8 15  1  0
  8 22  1  0
  8 24  3  0
  9 16  2  0
 10 14  4  0
 10 33  4  0
 11 17  4  0
 11 29  3  0
 12 13  4  0
 12 27  1  0
 12 28  3  0
 13 17  4  0
 13 23  4  0
 13 33  4  0
 14 31  4  0
 15 31  4  0
 15 32  4  0
 16 21  4  0
 16 27  3  0
 17 19  3  0
 17 22  1  0
 19 20  4  0
 19 30  4  0
 20 27  4  0
 20 28  3  0
 20 29  3  0
 21 28  4  0
 21 31  4  0
 22 26  1  0
 22 29  1  0
 22 32  3  0
 23 26  1  0
 23 28  1  0
 24 33  4  0
 25 26  2  0
 26 29  2  0
 26 33  1  0
 28 30  4  0
 29 31  4  0
M  END
$$$$

 Created by Python create_sdf_string function

 34 38  0  0  0  0  0  0  0  0999 V2000
    4.3126   -7.3687   16.0017 C   0  0  0  0  0  0  0  0  0  0  0  0
    8.6804   -7.8082   17.7099 C   0  0  0  0  0  0  0  0  0  0  0  0
    1.1103   -8.9105   16.4332 C   0  0  0  0  0  0  0  0  0  0  0  0
   10.2725   -3.6059   25.9190 C   0  0  0  0  0  0  0  0  0  0  0  0
   11.2562   -3.0751   22.3420 C   0  0  0  0  0  0  0  0  0  0  0  0
    9.5635   -2.4566   26.1866 C   0  0  0  0  0  0  0  0  0  0  0  0
    0.4549   -9.9067   15.6747 C   0  0  0  0  0  0  0  0  0  0  0  0
    7.5515   -8.6583   17.3721 C   0  0  0  0  0  0  0  0  0  0  0  0
    9.3320   -1.5226   25.1875 C   0  0  0  0  0  0  0  0  0  0  0  0
   10.5785   -2.8924   23.6842 C   0  0  0  0  0  0  0  0  0  0  0  0
   -0.3020  -10.8779   16.3324 C   0  0  0  0  0  0  0  0  0  0  0  0
   10.5085   -3.7498   21.2224 C   0  0  0  0  0  0  0  0  0  0  0  0
   -0.8118  -11.8757   14.2093 C   0  0  0  0  0  0  0  0  0  0  0  0
   10.7959   -3.8405   24.6439 C   0  0  0  0  0  0  0  0  0  0  0  0
    3.3253   -9.4888   17.3604 C   0  0  0  0  0  0  0  0  0  0  0  0
   10.6818   -4.1185   18.6038 C   0  0  0  0  0  0  0  0  0  0  0  0
   -0.9077  -11.8595   15.5654 C   0  0  0  0  0  0  0  0  0  0  0  0
    3.0644   -7.6534   15.8692 C   0  0  0  0  0  0  0  0  0  0  0  0
   10.6678   -3.6000   16.3277 C   0  0  0  0  0  0  0  0  0  0  0  0
   11.1160   -3.3432   17.5958 N   0  0  0  0  0  0  0  0  0  0  0  0
    9.8752   -5.1851   18.4016 C   0  0  0  0  0  0  0  0  0  0  0  0
    6.5863   -7.8324   16.7615 N   0  0  0  0  0  0  0  0  0  0  0  0
    8.5984   -6.6661   16.7618 C   0  0  0  0  0  0  0  0  0  0  0  0
    0.5282   -9.9202   14.2826 C   0  0  0  0  0  0  0  0  0  0  0  0
    6.7873   -5.8482   15.4161 O   0  0  0  0  0  0  0  0  0  0  0  0
    7.2280   -6.6751   16.2229 C   0  0  0  0  0  0  0  0  0  0  0  0
   11.2338   -3.7520   19.9129 C   0  0  0  0  0  0  0  0  0  0  0  0
    9.4379   -5.5190   17.0880 C   0  0  0  0  0  0  0  0  0  0  0  0
    5.2085   -8.1429   16.7555 C   0  0  0  0  0  0  0  0  0  0  0  0
    9.8398   -1.7400   23.8933 C   0  0  0  0  0  0  0  0  0  0  0  0
    9.7966   -4.6635   16.0879 C   0  0  0  0  0  0  0  0  0  0  0  0
    4.6205   -9.1833   17.4621 C   0  0  0  0  0  0  0  0  0  0  0  0
    2.5326   -8.7196   16.5543 C   0  0  0  0  0  0  0  0  0  0  0  0
   -0.1122  -10.9042   13.5512 C   0  0  0  0  0  0  0  0  0  0  0  0
  1 18  4  0
  1 29  4  0
  2  8  1  0
  2 23  1  0
  3  7  1  0
  3 33  1  0
  4  6  4  0
  4 14  4  0
  5 10  1  0
  5 12  1  0
  6  9  4  0
  7 11  4  0
  7 24  4  0
  8 22  1  0
  9 30  4  0
 10 14  4  0
 10 30  4  0
 11 17  4  0
 12 27  1  0
 13 17  4  0
 13 34  4  0
 15 32  4  0
 15 33  4  0
 16 20  4  0
 16 21  4  0
 16 27  1  0
 18 33  4  0
 19 20  4  0
 19 31  4  0
 21 28  4  0
 22 26  1  0
 22 29  1  0
 23 26  1  0
 23 28  1  0
 24 34  4  0
 25 26  2  0
 28 31  4  0
 29 32  4  0
M  END
$$$$

 Created by Python create_sdf_string function

 34 64  0  0  0  0  0  0  0  0999 V2000
    4.2058   -7.2720   15.9353 C   0  0  0  0  0  0  0  0  0  0  0  0
    8.7806   -7.9339   17.7375 C   0  0  0  0  0  0  0  0  0  0  0  0
    0.9897   -8.6563   16.4636 C   0  0  0  0  0  0  0  0  0  0  0  0
   10.2657   -3.5691   25.9766 C   0  0  0  0  0  0  0  0  0  0  0  0
   11.2768   -2.8528   22.3383 C   0  0  0  0  0  0  0  0  0  0  0  0
    9.5221   -2.4704   26.2488 C   0  0  0  0  0  0  0  0  0  0  0  0
    0.3583   -9.9730   15.4551 C   0  0  0  0  0  0  0  0  0  0  0  0
    7.5604   -8.7771   17.2840 C   0  0  0  0  0  0  0  0  0  0  0  0
    9.3561   -1.5896   25.0101 C   0  0  0  0  0  0  0  0  0  0  0  0
   10.5211   -2.9872   23.8421 C   0  0  0  0  0  0  0  0  0  0  0  0
   -0.3603  -10.7936   16.2473 C   0  0  0  0  0  0  0  0  0  0  0  0
   10.6167   -3.8279   21.2162 C   0  0  0  0  0  0  0  0  0  0  0  0
   -0.6186  -12.1059   14.0183 C   0  0  0  0  0  0  0  0  0  0  0  0
   10.8278   -3.8529   24.6001 C   0  0  0  0  0  0  0  0  0  0  0  0
    3.2869   -9.6673   17.4815 C   0  0  0  0  0  0  0  0  0  0  0  0
   10.7064   -3.9615   18.6720 C   0  0  0  0  0  0  0  0  0  0  0  0
   -0.8342  -11.8697   15.4941 S   0  0  0  0  0  0  0  0  0  0  0  0
    3.2352   -7.6788   15.6810 C   0  0  0  0  0  0  0  0  0  0  0  0
   10.5810   -3.7677   16.5184 C   0  0  0  0  0  0  0  0  0  0  0  0
   11.0701   -3.2823   17.5869 N   0  0  0  0  0  0  0  0  0  0  0  0
    9.8838   -5.2793   18.2404 C   0  0  0  0  0  0  0  0  0  0  0  0
    6.4275   -7.7954   16.8211 C   0  0  0  0  0  0  0  0  0  0  0  0
    8.8175   -6.4830   16.7917 S   0  0  0  0  0  0  0  0  0  0  0  0
    0.6004  -10.0187   14.2319 C   0  0  0  0  0  0  0  0  0  0  0  0
    6.9529   -5.8013   15.2522 O   0  0  0  0  0  0  0  0  0  0  0  0
    7.1485   -6.7524   16.2300 I   0  0  0  0  0  0  0  0  0  0  0  0
   11.1382   -3.6528   20.0114 C   0  0  0  0  0  0  0  0  0  0  0  0
    9.5247   -5.4176   17.0265 P   0  0  0  0  0  0  0  0  0  0  0  0
    5.4359   -8.0155   16.9076 C   0  0  0  0  0  0  0  0  0  0  0  0
    9.9396   -1.7290   23.9441 C   0  0  0  0  0  0  0  0  0  0  0  0
    9.9529   -4.6395   16.2046 C   0  0  0  0  0  0  0  0  0  0  0  0
    4.3384   -9.3102   17.4457 C   0  0  0  0  0  0  0  0  0  0  0  0
    2.5215   -8.8076   16.6571 C   0  0  0  0  0  0  0  0  0  0  0  0
   -0.0888  -11.0669   13.7574 C   0  0  0  0  0  0  0  0  0  0  0  0
  1 18  4  0
  1 29  4  0
  2  8  1  0
  2 12  3  0
  2 23  1  0
  3  7  1  0
  3 30  3  0
  3 33  1  0
  4  6  4  0
  4 14  4  0
  4 34  2  0
  5  8  3  0
  5 10  1  0
  5 12  1  0
  5 28  1  0
  6  9  4  0
  6 10  3  0
  6 19  2  0
  7 11  4  0
  7 16  4  0
  7 17  2  0
  7 24  2  0
  7 29  1  0
  8 22  1  0
  9 29  4  0
  9 30  4  0
 10 11  3  0
 10 14  4  0
 10 28  1  0
 10 30  4  0
 11 17  4  0
 12 27  1  0
 12 29  1  0
 12 34  3  0
 13 17  4  0
 13 18  3  0
 13 34  4  0
 14 15  1  0
 14 28  1  0
 15 32  4  0
 15 33  4  0
 16 20  4  0
 16 21  4  0
 16 27  1  0
 16 33  3  0
 17 29  1  0
 18 33  4  0
 19 20  4  0
 19 31  4  0
 21 28  4  0
 22 26  1  0
 22 28  2  0
 22 29  1  0
 23 25  2  0
 23 26  1  0
 23 28  1  0
 23 32  2  0
 24 34  4  0
 25 26  2  0
 25 31  2  0
 26 30  1  0
 26 31  2  0
 28 31  4  0
 29 32  4  0
M  END
$$$$

 Created by Python create_sdf_string function

 34 38  0  0  0  0  0  0  0  0999 V2000
    4.3048   -7.3662   15.9353 C   0  0  0  0  0  0  0  0  0  0  0  0
    8.7728   -7.8554   17.6140 C   0  0  0  0  0  0  0  0  0  0  0  0
    1.0174   -8.8513   16.4369 C   0  0  0  0  0  0  0  0  0  0  0  0
   10.2720   -3.6229   25.8966 C   0  0  0  0  0  0  0  0  0  0  0  0
   11.2815   -3.0180   22.3277 C   0  0  0  0  0  0  0  0  0  0  0  0
    9.5270   -2.4839   26.1669 C   0  0  0  0  0  0  0  0  0  0  0  0
    0.4134   -9.9222   15.6197 C   0  0  0  0  0  0  0  0  0  0  0  0
    7.5274   -8.6526   17.3627 C   0  0  0  0  0  0  0  0  0  0  0  0
    9.3310   -1.5364   25.1674 C   0  0  0  0  0  0  0  0  0  0  0  0
   10.6097   -2.8628   23.6694 C   0  0  0  0  0  0  0  0  0  0  0  0
   -0.3622  -10.8745   16.2561 C   0  0  0  0  0  0  0  0  0  0  0  0
   10.5628   -3.8068   21.2418 C   0  0  0  0  0  0  0  0  0  0  0  0
   -0.7106  -12.0102   14.1607 C   0  0  0  0  0  0  0  0  0  0  0  0
   10.8042   -3.8255   24.6212 C   0  0  0  0  0  0  0  0  0  0  0  0
    3.2856   -9.4812   17.3314 C   0  0  0  0  0  0  0  0  0  0  0  0
   10.6781   -4.0762   18.6176 C   0  0  0  0  0  0  0  0  0  0  0  0
   -0.8989  -11.9018   15.5327 C   0  0  0  0  0  0  0  0  0  0  0  0
    3.0513   -7.6243   15.8471 C   0  0  0  0  0  0  0  0  0  0  0  0
   10.6885   -3.5784   16.3562 C   0  0  0  0  0  0  0  0  0  0  0  0
   11.0584   -3.2728   17.6332 N   0  0  0  0  0  0  0  0  0  0  0  0
    9.9073   -5.1833   18.3971 C   0  0  0  0  0  0  0  0  0  0  0  0
    6.5465   -7.7703   16.7901 C   0  0  0  0  0  0  0  0  0  0  0  0
    8.6373   -6.6111   16.8524 N   0  0  0  0  0  0  0  0  0  0  0  0
    0.5747   -9.9969   14.2085 C   0  0  0  0  0  0  0  0  0  0  0  0
    6.9463   -5.8260   15.3592 O   0  0  0  0  0  0  0  0  0  0  0  0
    7.3049   -6.6294   16.2434 C   0  0  0  0  0  0  0  0  0  0  0  0
   11.1859   -3.6653   19.9257 C   0  0  0  0  0  0  0  0  0  0  0  0
    9.4882   -5.5112   17.1268 C   0  0  0  0  0  0  0  0  0  0  0  0
    5.1489   -8.1306   16.7249 C   0  0  0  0  0  0  0  0  0  0  0  0
    9.8667   -1.7231   23.8789 C   0  0  0  0  0  0  0  0  0  0  0  0
    9.8616   -4.6708   16.1030 C   0  0  0  0  0  0  0  0  0  0  0  0
    4.5515   -9.1879   17.4370 C   0  0  0  0  0  0  0  0  0  0  0  0
    2.4745   -8.6822   16.5235 C   0  0  0  0  0  0  0  0  0  0  0  0
    0.0101  -11.0394   13.5166 C   0  0  0  0  0  0  0  0  0  0  0  0
  1 18  4  0
  1 29  4  0
  2  8  1  0
  2 23  1  0
  3  7  1  0
  3 33  1  0
  4  6  4  0
  4 14  4  0
  5 10  1  0
  5 12  1  0
  6  9  4  0
  7 11  4  0
  7 24  4  0
  8 22  1  0
  9 30  4  0
 10 14  4  0
 10 30  4  0
 11 17  4  0
 12 27  1  0
 13 17  4  0
 13 34  4  0
 15 32  4  0
 15 33  4  0
 16 20  4  0
 16 21  4  0
 16 27  1  0
 18 33  4  0
 19 20  4  0
 19 31  4  0
 21 28  4  0
 22 26  1  0
 22 29  1  0
 23 26  1  0
 23 28  1  0
 24 34  4  0
 25 26  2  0
 28 31  4  0
 29 32  4  0
M  END
$$$$

 Created by Python create_sdf_string function

 34 50  0  0  0  0  0  0  0  0999 V2000
    4.5753   -7.3878   16.0240 C   0  0  0  0  0  0  0  0  0  0  0  0
    8.5778   -7.8855   17.7606 C   0  0  0  0  0  0  0  0  0  0  0  0
    0.8424   -8.7087   16.5121 C   0  0  0  0  0  0  0  0  0  0  0  0
   10.3252   -3.5615   25.8321 C   0  0  0  0  0  0  0  0  0  0  0  0
   11.3551   -2.7978   22.3415 C   0  0  0  0  0  0  0  0  0  0  0  0
    9.4966   -2.5494   26.2449 C   0  0  0  0  0  0  0  0  0  0  0  0
    0.4708   -9.9875   15.6326 C   0  0  0  0  0  0  0  0  0  0  0  0
    7.5028   -8.6523   17.3793 C   0  0  0  0  0  0  0  0  0  0  0  0
    9.4619   -1.4951   25.1599 C   0  0  0  0  0  0  0  0  0  0  0  0
   10.5694   -2.9331   23.4996 C   0  0  0  0  0  0  0  0  0  0  0  0
   -0.3691  -10.9173   16.1124 C   0  0  0  0  0  0  0  0  0  0  0  0
   10.5701   -3.8572   21.2005 C   0  0  0  0  0  0  0  0  0  0  0  0
   10.8979   -3.7453   24.6645 C   0  0  0  0  0  0  0  0  0  0  0  0
   10.5653   -4.0279   18.5803 C   0  0  0  0  0  0  0  0  0  0  0  0
    3.0181   -7.6455   15.8746 C   0  0  0  0  0  0  0  0  0  0  0  0
   10.5455   -3.3821   16.3874 C   0  0  0  0  0  0  0  0  0  0  0  0
   11.1374   -3.2629   17.5026 N   0  0  0  0  0  0  0  0  0  0  0  0
    9.8215   -5.1213   18.3044 C   0  0  0  0  0  0  0  0  0  0  0  0
    6.8461   -7.9872   16.8658 C   0  0  0  0  0  0  0  0  0  0  0  0
    8.7210   -6.5165   16.9812 N   0  0  0  0  0  0  0  0  0  0  0  0
    0.4769  -10.0210   14.3780 C   0  0  0  0  0  0  0  0  0  0  0  0
    6.8873   -6.0456   15.3149 O   0  0  0  0  0  0  0  0  0  0  0  0
    7.2739   -6.4956   16.2406 C   0  0  0  0  0  0  0  0  0  0  0  0
   11.1416   -3.5237   20.1755 C   0  0  0  0  0  0  0  0  0  0  0  0
    9.6191   -5.5064   17.0933 C   0  0  0  0  0  0  0  0  0  0  0  0
    5.5556   -8.1736   16.6113 C   0  0  0  0  0  0  0  0  0  0  0  0
    9.7748   -1.6965   23.6985 C   0  0  0  0  0  0  0  0  0  0  0  0
    9.7339   -4.7180   16.0869 C   0  0  0  0  0  0  0  0  0  0  0  0
    4.5223   -9.1007   17.6148 C   0  0  0  0  0  0  0  0  0  0  0  0
    2.5596   -8.8195   16.7372 C   0  0  0  0  0  0  0  0  0  0  0  0
   -0.0914  -10.8801   13.5819 C   0  0  0  0  0  0  0  0  0  0  0  0
   -0.5920  -12.1271   14.3309 He  0  0  0  0  0  0  0  0  0  0  0  0
    3.3001   -9.3718   17.4879 He  0  0  0  0  0  0  0  0  0  0  0  0
   -0.8364  -11.8505   15.3469 He  0  0  0  0  0  0  0  0  0  0  0  0
  1 15  4  0
  1 25  3  0
  1 26  4  0
  2  4  3  0
  2  8  1  0
  2 20  1  0
  3  7  1  0
  3 30  1  0
  4  6  4  0
  4 10  1  0
  4 13  4  0
  5 10  1  0
  5 12  1  0
  5 18  2  0
  5 28  3  0
  5 30  1  0
  6  9  4  0
  6 29  3  0
  7 11  4  0
  7 13  4  0
  7 21  4  0
  8 10  2  0
  8 18  3  0
  8 19  1  0
  8 23  3  0
  9 15  1  0
  9 27  4  0
  9 28  3  0
 10 13  4  0
 10 17  4  0
 10 27  4  0
 11 12  2  0
 12 24  1  0
 14 17  4  0
 14 18  4  0
 14 23  2  0
 14 24  1  0
 15 30  4  0
 16 17  4  0
 16 28  4  0
 18 25  4  0
 19 23  1  0
 19 26  1  0
 20 23  1  0
 20 25  1  0
 21 27  3  0
 21 31  4  0
 22 23  2  0
 25 28  4  0
 26 29  1  0
M  END
$$$$

 Created by Python create_sdf_string function

 34 38  0  0  0  0  0  0  0  0999 V2000
    4.3752   -7.4115   15.9272 C   0  0  0  0  0  0  0  0  0  0  0  0
    8.7609   -7.7747   17.7540 C   0  0  0  0  0  0  0  0  0  0  0  0
    1.0364   -8.8588   16.5152 C   0  0  0  0  0  0  0  0  0  0  0  0
   10.3298   -3.5846   25.8474 C   0  0  0  0  0  0  0  0  0  0  0  0
   11.2759   -2.9674   22.2738 C   0  0  0  0  0  0  0  0  0  0  0  0
    9.5698   -2.4709   26.1254 C   0  0  0  0  0  0  0  0  0  0  0  0
    0.4062   -9.9118   15.6804 C   0  0  0  0  0  0  0  0  0  0  0  0
    7.5922   -8.6465   17.4759 C   0  0  0  0  0  0  0  0  0  0  0  0
    9.3052   -1.5306   25.1355 C   0  0  0  0  0  0  0  0  0  0  0  0
   10.6123   -2.8319   23.6135 C   0  0  0  0  0  0  0  0  0  0  0  0
   -0.3474  -10.8990   16.2776 C   0  0  0  0  0  0  0  0  0  0  0  0
   10.5812   -3.7868   21.2183 C   0  0  0  0  0  0  0  0  0  0  0  0
   -0.6895  -11.9479   14.1776 C   0  0  0  0  0  0  0  0  0  0  0  0
   10.8498   -3.7806   24.5694 C   0  0  0  0  0  0  0  0  0  0  0  0
    3.3122   -9.3849   17.4479 C   0  0  0  0  0  0  0  0  0  0  0  0
   10.6581   -4.0204   18.6004 C   0  0  0  0  0  0  0  0  0  0  0  0
   -0.8631  -11.9127   15.5179 C   0  0  0  0  0  0  0  0  0  0  0  0
    3.0891   -7.6608   15.8982 C   0  0  0  0  0  0  0  0  0  0  0  0
   10.5855   -3.5591   16.3141 C   0  0  0  0  0  0  0  0  0  0  0  0
   10.9877   -3.2256   17.5788 N   0  0  0  0  0  0  0  0  0  0  0  0
    9.9026   -5.1623   18.4267 C   0  0  0  0  0  0  0  0  0  0  0  0
    6.6398   -7.8773   16.7408 C   0  0  0  0  0  0  0  0  0  0  0  0
    8.5843   -6.5843   16.9724 N   0  0  0  0  0  0  0  0  0  0  0  0
    0.5515   -9.9308   14.2961 C   0  0  0  0  0  0  0  0  0  0  0  0
    6.9673   -5.8904   15.3579 O   0  0  0  0  0  0  0  0  0  0  0  0
    7.3645   -6.6754   16.2451 C   0  0  0  0  0  0  0  0  0  0  0  0
   11.1681   -3.5803   19.9038 C   0  0  0  0  0  0  0  0  0  0  0  0
    9.4074   -5.4933   17.1817 C   0  0  0  0  0  0  0  0  0  0  0  0
    5.2447   -8.1472   16.7435 C   0  0  0  0  0  0  0  0  0  0  0  0
    9.8294   -1.7073   23.8378 C   0  0  0  0  0  0  0  0  0  0  0  0
    9.7542   -4.6538   16.1145 C   0  0  0  0  0  0  0  0  0  0  0  0
    4.5861   -9.1499   17.5090 C   0  0  0  0  0  0  0  0  0  0  0  0
    2.5066   -8.6602   16.6277 C   0  0  0  0  0  0  0  0  0  0  0  0
    0.0015  -10.9542   13.5362 C   0  0  0  0  0  0  0  0  0  0  0  0
  1 18  4  0
  1 29  4  0
  2  8  1  0
  2 23  1  0
  3  7  1  0
  3 33  1  0
  4  6  4  0
  4 14  4  0
  5 10  1  0
  5 12  1  0
  6  9  4  0
  7 11  4  0
  7 24  4  0
  8 22  1  0
  9 30  4  0
 10 14  4  0
 10 30  4  0
 11 17  4  0
 12 27  1  0
 13 17  4  0
 13 34  4  0
 15 32  4  0
 15 33  4  0
 16 20  4  0
 16 21  4  0
 16 27  1  0
 18 33  4  0
 19 20  4  0
 19 31  4  0
 21 28  4  0
 22 26  1  0
 22 29  1  0
 23 26  1  0
 23 28  1  0
 24 34  4  0
 25 26  2  0
 28 31  4  0
 29 32  4  0
M  END
$$$$

 Created by Python create_sdf_string function

 34 51  0  0  0  0  0  0  0  0999 V2000
    4.2932   -7.1891   16.1304 C   0  0  0  0  0  0  0  0  0  0  0  0
    8.8074   -7.6936   17.6890 C   0  0  0  0  0  0  0  0  0  0  0  0
    1.0571   -8.8623   16.3403 C   0  0  0  0  0  0  0  0  0  0  0  0
   10.3338   -3.5957   25.8688 C   0  0  0  0  0  0  0  0  0  0  0  0
   11.1945   -2.9394   22.3042 C   0  0  0  0  0  0  0  0  0  0  0  0
    9.5832   -2.3688   26.1484 C   0  0  0  0  0  0  0  0  0  0  0  0
    0.3736   -9.8893   15.6151 C   0  0  0  0  0  0  0  0  0  0  0  0
    7.6553   -8.6117   17.5506 C   0  0  0  0  0  0  0  0  0  0  0  0
    9.2558   -1.4051   25.0901 C   0  0  0  0  0  0  0  0  0  0  0  0
   10.7486   -2.8303   23.7485 C   0  0  0  0  0  0  0  0  0  0  0  0
   -0.3697  -10.9058   16.2677 C   0  0  0  0  0  0  0  0  0  0  0  0
   10.6429   -3.7759   21.2645 C   0  0  0  0  0  0  0  0  0  0  0  0
   -0.6360  -11.9234   14.2217 C   0  0  0  0  0  0  0  0  0  0  0  0
   10.9169   -3.8142   24.4752 C   0  0  0  0  0  0  0  0  0  0  0  0
    3.3443   -9.5108   17.4030 C   0  0  0  0  0  0  0  0  0  0  0  0
   10.4328   -4.2021   18.5799 C   0  0  0  0  0  0  0  0  0  0  0  0
   -0.8403  -12.0402   15.4397 C   0  0  0  0  0  0  0  0  0  0  0  0
   10.4818   -3.6397   16.1729 C   0  0  0  0  0  0  0  0  0  0  0  0
   11.1055   -3.2594   17.4705 N   0  0  0  0  0  0  0  0  0  0  0  0
    9.8950   -5.2098   18.3022 C   0  0  0  0  0  0  0  0  0  0  0  0
    6.6971   -7.7731   16.7431 C   0  0  0  0  0  0  0  0  0  0  0  0
    8.5684   -6.8174   16.8949 N   0  0  0  0  0  0  0  0  0  0  0  0
    0.5304   -9.9893   14.3524 C   0  0  0  0  0  0  0  0  0  0  0  0
    7.0595   -5.9105   15.3374 O   0  0  0  0  0  0  0  0  0  0  0  0
    7.2934   -6.5326   16.2775 C   0  0  0  0  0  0  0  0  0  0  0  0
   11.2597   -3.5349   19.8066 C   0  0  0  0  0  0  0  0  0  0  0  0
    9.5319   -5.5981   17.1316 C   0  0  0  0  0  0  0  0  0  0  0  0
    5.2861   -8.0492   16.7425 C   0  0  0  0  0  0  0  0  0  0  0  0
    9.7817   -1.6518   23.8821 C   0  0  0  0  0  0  0  0  0  0  0  0
    9.6432   -4.5185   16.1759 C   0  0  0  0  0  0  0  0  0  0  0  0
    4.4312   -9.3748   17.3946 C   0  0  0  0  0  0  0  0  0  0  0  0
    2.4552   -8.2783   16.5882 C   0  0  0  0  0  0  0  0  0  0  0  0
   -0.0584  -10.9780   13.4716 C   0  0  0  0  0  0  0  0  0  0  0  0
    3.1907   -7.7684   15.9380 He  0  0  0  0  0  0  0  0  0  0  0  0
  1  6  1  0
  1  8  2  0
  1 28  4  0
  2  6  3  0
  2  8  1  0
  2 13  3  0
  2 20  4  0
  2 22  1  0
  3  7  1  0
  3 11  1  0
  4  6  1  0
  4 14  4  0
  4 27  1  0
  5 10  1  0
  5 12  1  0
  6  9  4  0
  7 11  4  0
  7 23  4  0
  8 14  3  0
  8 21  1  0
  9 28  3  0
  9 29  4  0
 10 14  4  0
 10 19  1  0
 10 29  4  0
 11 17  4  0
 11 22  1  0
 11 24  4  0
 12 14  4  0
 12 24  3  0
 12 26  1  0
 13 17  4  0
 13 33  4  0
 15 20  1  0
 15 24  4  0
 15 27  4  0
 15 31  4  0
 15 32  4  0
 16 26  1  0
 17 32  2  0
 18 19  4  0
 18 30  4  0
 18 32  4  0
 20 27  4  0
 20 31  4  0
 21 25  1  0
 21 28  1  0
 22 25  1  0
 23 33  4  0
 24 25  2  0
 27 30  4  0
M  END
$$$$

 Created by Python create_sdf_string function

 34 38  0  0  0  0  0  0  0  0999 V2000
    4.3359   -7.2907   16.0344 C   0  0  0  0  0  0  0  0  0  0  0  0
    8.7817   -7.7879   17.7031 C   0  0  0  0  0  0  0  0  0  0  0  0
    1.0776   -8.8817   16.4235 C   0  0  0  0  0  0  0  0  0  0  0  0
   10.3202   -3.5399   25.8643 C   0  0  0  0  0  0  0  0  0  0  0  0
   11.2557   -2.9413   22.2729 C   0  0  0  0  0  0  0  0  0  0  0  0
    9.5576   -2.4122   26.1314 C   0  0  0  0  0  0  0  0  0  0  0  0
    0.4227   -9.9300   15.6248 C   0  0  0  0  0  0  0  0  0  0  0  0
    7.5524   -8.5955   17.5442 C   0  0  0  0  0  0  0  0  0  0  0  0
    9.3071   -1.4682   25.1377 C   0  0  0  0  0  0  0  0  0  0  0  0
   10.6070   -2.7971   23.6151 C   0  0  0  0  0  0  0  0  0  0  0  0
   -0.3270  -10.9211   16.2511 C   0  0  0  0  0  0  0  0  0  0  0  0
   10.5966   -3.7634   21.1731 C   0  0  0  0  0  0  0  0  0  0  0  0
   -0.7141  -11.9614   14.1601 C   0  0  0  0  0  0  0  0  0  0  0  0
   10.8537   -3.7533   24.5800 C   0  0  0  0  0  0  0  0  0  0  0  0
    3.3216   -9.4465   17.3051 C   0  0  0  0  0  0  0  0  0  0  0  0
   10.6517   -4.0720   18.5356 C   0  0  0  0  0  0  0  0  0  0  0  0
   -0.8717  -11.9353   15.5044 C   0  0  0  0  0  0  0  0  0  0  0  0
    3.0832   -7.5120   15.9836 C   0  0  0  0  0  0  0  0  0  0  0  0
   10.5121   -3.5672   16.2432 C   0  0  0  0  0  0  0  0  0  0  0  0
   10.9779   -3.2722   17.4995 N   0  0  0  0  0  0  0  0  0  0  0  0
    9.9158   -5.1894   18.3711 C   0  0  0  0  0  0  0  0  0  0  0  0
    6.6054   -7.8195   16.7512 C   0  0  0  0  0  0  0  0  0  0  0  0
    8.5822   -6.5939   16.9331 N   0  0  0  0  0  0  0  0  0  0  0  0
    0.5491   -9.9176   14.2433 C   0  0  0  0  0  0  0  0  0  0  0  0
    7.0084   -5.8565   15.3641 O   0  0  0  0  0  0  0  0  0  0  0  0
    7.3617   -6.6530   16.2445 C   0  0  0  0  0  0  0  0  0  0  0  0
   11.1796   -3.6059   19.8257 C   0  0  0  0  0  0  0  0  0  0  0  0
    9.3905   -5.5048   17.1243 C   0  0  0  0  0  0  0  0  0  0  0  0
    5.2003   -8.1172   16.7333 C   0  0  0  0  0  0  0  0  0  0  0  0
    9.8474   -1.6611   23.8409 C   0  0  0  0  0  0  0  0  0  0  0  0
    9.6842   -4.6558   16.0689 C   0  0  0  0  0  0  0  0  0  0  0  0
    4.5879   -9.1979   17.4019 C   0  0  0  0  0  0  0  0  0  0  0  0
    2.5273   -8.6390   16.5592 C   0  0  0  0  0  0  0  0  0  0  0  0
   -0.0352  -10.9612   13.5007 C   0  0  0  0  0  0  0  0  0  0  0  0
  1 18  4  0
  1 29  4  0
  2  8  1  0
  2 23  1  0
  3  7  1  0
  3 33  1  0
  4  6  4  0
  4 14  4  0
  5 10  1  0
  5 12  1  0
  6  9  4  0
  7 11  4  0
  7 24  4  0
  8 22  1  0
  9 30  4  0
 10 14  4  0
 10 30  4  0
 11 17  4  0
 12 27  1  0
 13 17  4  0
 13 34  4  0
 15 32  4  0
 15 33  4  0
 16 20  4  0
 16 21  4  0
 16 27  1  0
 18 33  4  0
 19 20  4  0
 19 31  4  0
 21 28  4  0
 22 26  1  0
 22 29  1  0
 23 26  1  0
 23 28  1  0
 24 34  4  0
 25 26  2  0
 28 31  4  0
 29 32  4  0
M  END
$$$$

 Created by Python create_sdf_string function

 34 58  0  0  0  0  0  0  0  0999 V2000
    4.2699   -7.0255   15.8615 C   0  0  0  0  0  0  0  0  0  0  0  0
    8.7641   -7.9300   17.8012 C   0  0  0  0  0  0  0  0  0  0  0  0
    0.8807   -8.9561   16.4062 C   0  0  0  0  0  0  0  0  0  0  0  0
   10.4348   -3.5312   25.8621 C   0  0  0  0  0  0  0  0  0  0  0  0
   11.0835   -2.8956   22.3925 C   0  0  0  0  0  0  0  0  0  0  0  0
    9.5452   -2.3832   26.1756 C   0  0  0  0  0  0  0  0  0  0  0  0
    0.3608  -10.0138   15.7836 C   0  0  0  0  0  0  0  0  0  0  0  0
    7.5315   -8.6585   17.6812 C   0  0  0  0  0  0  0  0  0  0  0  0
    9.2475   -1.5251   25.2089 C   0  0  0  0  0  0  0  0  0  0  0  0
   10.4706   -2.7917   23.6179 C   0  0  0  0  0  0  0  0  0  0  0  0
   -0.3157  -10.9382   16.3685 C   0  0  0  0  0  0  0  0  0  0  0  0
   10.7516   -3.7635   21.0863 C   0  0  0  0  0  0  0  0  0  0  0  0
   -0.8350  -11.9555   14.1658 C   0  0  0  0  0  0  0  0  0  0  0  0
   10.8660   -3.7028   24.5063 C   0  0  0  0  0  0  0  0  0  0  0  0
    3.3739   -9.4652   17.2861 C   0  0  0  0  0  0  0  0  0  0  0  0
   10.5060   -4.2307   18.5377 C   0  0  0  0  0  0  0  0  0  0  0  0
   -0.9099  -12.0075   15.5346 C   0  0  0  0  0  0  0  0  0  0  0  0
    3.0295   -7.6775   16.0467 C   0  0  0  0  0  0  0  0  0  0  0  0
   10.4231   -3.6133   16.1327 C   0  0  0  0  0  0  0  0  0  0  0  0
   10.9178   -3.3064   17.4991 N   0  0  0  0  0  0  0  0  0  0  0  0
    9.9138   -5.2282   18.3303 C   0  0  0  0  0  0  0  0  0  0  0  0
    6.5772   -7.7531   16.9066 C   0  0  0  0  0  0  0  0  0  0  0  0
    8.5236   -6.3894   16.9313 N   0  0  0  0  0  0  0  0  0  0  0  0
    0.4994  -10.0261   14.4034 C   0  0  0  0  0  0  0  0  0  0  0  0
    7.0935   -6.0569   15.4682 O   0  0  0  0  0  0  0  0  0  0  0  0
    7.3396   -6.6475   16.1089 C   0  0  0  0  0  0  0  0  0  0  0  0
   11.1934   -3.3828   19.8093 C   0  0  0  0  0  0  0  0  0  0  0  0
    9.4288   -5.5094   17.1534 C   0  0  0  0  0  0  0  0  0  0  0  0
    5.1459   -7.9958   16.7960 C   0  0  0  0  0  0  0  0  0  0  0  0
    9.7393   -1.7787   23.9157 C   0  0  0  0  0  0  0  0  0  0  0  0
    9.7874   -4.7975   16.0790 C   0  0  0  0  0  0  0  0  0  0  0  0
    4.5811   -9.1729   17.2784 C   0  0  0  0  0  0  0  0  0  0  0  0
    2.5891   -8.5072   16.5220 C   0  0  0  0  0  0  0  0  0  0  0  0
    0.0033  -10.8898   13.5808 C   0  0  0  0  0  0  0  0  0  0  0  0
  1 17  2  0
  1 29  4  0
  1 30  3  0
  1 32  1  0
  2  8  1  0
  2 22  2  0
  2 23  1  0
  3  7  1  0
  3 33  1  0
  4  6  4  0
  4 14  4  0
  5  9  4  0
  5 10  1  0
  5 12  1  0
  6  9  4  0
  6 16  3  0
  6 32  1  0
  7 11  4  0
  7 24  4  0
  8 22  1  0
  9 12  4  0
  9 30  4  0
 10 14  4  0
 10 30  4  0
 11 17  4  0
 11 18  4  0
 11 23  4  0
 12 27  1  0
 13 17  4  0
 13 26  4  0
 13 34  4  0
 14 18  1  0
 14 22  1  0
 14 34  4  0
 15 32  4  0
 15 33  4  0
 16 18  4  0
 16 19  3  0
 16 20  4  0
 16 21  4  0
 16 27  1  0
 17 18  2  0
 18 27  1  0
 18 33  4  0
 19 20  4  0
 19 25  1  0
 19 29  2  0
 19 31  4  0
 20 34  3  0
 21 28  4  0
 22 26  1  0
 22 29  1  0
 23 26  1  0
 23 28  1  0
 23 30  1  0
 24 34  4  0
 25 30  4  0
 29 32  4  0
M  END
$$$$

 Created by Python create_sdf_string function

 34 38  0  0  0  0  0  0  0  0999 V2000
    4.2764   -7.2344   16.0269 C   0  0  0  0  0  0  0  0  0  0  0  0
    8.7510   -7.8005   17.7568 C   0  0  0  0  0  0  0  0  0  0  0  0
    1.0184   -8.9191   16.5227 C   0  0  0  0  0  0  0  0  0  0  0  0
   10.3950   -3.5239   25.8684 C   0  0  0  0  0  0  0  0  0  0  0  0
   11.1358   -2.8959   22.2659 C   0  0  0  0  0  0  0  0  0  0  0  0
    9.5942   -2.4431   26.1620 C   0  0  0  0  0  0  0  0  0  0  0  0
    0.4084   -9.9795   15.7218 C   0  0  0  0  0  0  0  0  0  0  0  0
    7.4849   -8.5708   17.6364 C   0  0  0  0  0  0  0  0  0  0  0  0
    9.2502   -1.5397   25.1812 C   0  0  0  0  0  0  0  0  0  0  0  0
   10.5234   -2.7971   23.6082 C   0  0  0  0  0  0  0  0  0  0  0  0
   -0.3500  -10.9867   16.3270 C   0  0  0  0  0  0  0  0  0  0  0  0
   10.6336   -3.7792   21.1282 C   0  0  0  0  0  0  0  0  0  0  0  0
   -0.8027  -11.9420   14.1931 C   0  0  0  0  0  0  0  0  0  0  0  0
   10.8620   -3.7311   24.5604 C   0  0  0  0  0  0  0  0  0  0  0  0
    3.3219   -9.4252   17.2431 C   0  0  0  0  0  0  0  0  0  0  0  0
   10.6181   -4.0348   18.5044 C   0  0  0  0  0  0  0  0  0  0  0  0
   -0.9388  -11.9561   15.5496 C   0  0  0  0  0  0  0  0  0  0  0  0
    2.9962   -7.5080   15.9485 C   0  0  0  0  0  0  0  0  0  0  0  0
   10.5058   -3.6193   16.2131 C   0  0  0  0  0  0  0  0  0  0  0  0
   10.9142   -3.2707   17.4678 N   0  0  0  0  0  0  0  0  0  0  0  0
    9.8989   -5.1940   18.3826 C   0  0  0  0  0  0  0  0  0  0  0  0
    6.5256   -7.7552   16.8479 C   0  0  0  0  0  0  0  0  0  0  0  0
    8.5585   -6.5974   16.9685 N   0  0  0  0  0  0  0  0  0  0  0  0
    0.5401   -9.9579   14.3323 C   0  0  0  0  0  0  0  0  0  0  0  0
    7.0084   -5.9309   15.3408 O   0  0  0  0  0  0  0  0  0  0  0  0
    7.3135   -6.6684   16.2727 C   0  0  0  0  0  0  0  0  0  0  0  0
   11.1429   -3.5158   19.7817 C   0  0  0  0  0  0  0  0  0  0  0  0
    9.4001   -5.5472   17.1435 C   0  0  0  0  0  0  0  0  0  0  0  0
    5.1426   -8.0514   16.7308 C   0  0  0  0  0  0  0  0  0  0  0  0
    9.7139   -1.7018   23.8768 C   0  0  0  0  0  0  0  0  0  0  0  0
    9.7080   -4.7414   16.0520 C   0  0  0  0  0  0  0  0  0  0  0  0
    4.5736   -9.1531   17.3384 C   0  0  0  0  0  0  0  0  0  0  0  0
    2.4716   -8.6314   16.5549 C   0  0  0  0  0  0  0  0  0  0  0  0
   -0.0804  -10.9448   13.5755 C   0  0  0  0  0  0  0  0  0  0  0  0
  1 18  4  0
  1 29  4  0
  2  8  1  0
  2 23  1  0
  3  7  1  0
  3 33  1  0
  4  6  4  0
  4 14  4  0
  5 10  1  0
  5 12  1  0
  6  9  4  0
  7 11  4  0
  7 24  4  0
  8 22  1  0
  9 30  4  0
 10 14  4  0
 10 30  4  0
 11 17  4  0
 12 27  1  0
 13 17  4  0
 13 34  4  0
 15 32  4  0
 15 33  4  0
 16 20  4  0
 16 21  4  0
 16 27  1  0
 18 33  4  0
 19 20  4  0
 19 31  4  0
 21 28  4  0
 22 26  1  0
 22 29  1  0
 23 26  1  0
 23 28  1  0
 24 34  4  0
 25 26  2  0
 28 31  4  0
 29 32  4  0
M  END
$$$$

 Created by Python create_sdf_string function

 34 58  0  0  0  0  0  0  0  0999 V2000
    4.3234   -7.3090   15.9447 C   0  0  0  0  0  0  0  0  0  0  0  0
    8.7886   -7.9480   17.8229 C   0  0  0  0  0  0  0  0  0  0  0  0
    1.0486   -8.9912   16.4869 C   0  0  0  0  0  0  0  0  0  0  0  0
   10.4913   -3.5956   25.7698 C   0  0  0  0  0  0  0  0  0  0  0  0
   11.2807   -2.8683   22.1903 C   0  0  0  0  0  0  0  0  0  0  0  0
    9.5768   -2.4460   26.2293 C   0  0  0  0  0  0  0  0  0  0  0  0
    0.5331  -10.1109   15.6726 C   0  0  0  0  0  0  0  0  0  0  0  0
    7.5121   -8.5067   17.6576 C   0  0  0  0  0  0  0  0  0  0  0  0
    9.1087   -1.4723   25.1918 C   0  0  0  0  0  0  0  0  0  0  0  0
   10.7300   -2.8172   23.4327 C   0  0  0  0  0  0  0  0  0  0  0  0
   -0.3058  -11.0461   16.2162 C   0  0  0  0  0  0  0  0  0  0  0  0
   10.6388   -3.6390   20.9997 C   0  0  0  0  0  0  0  0  0  0  0  0
   -0.7795  -12.0238   14.3369 C   0  0  0  0  0  0  0  0  0  0  0  0
   10.9338   -3.7172   24.6039 C   0  0  0  0  0  0  0  0  0  0  0  0
    3.1909   -9.3350   17.1341 C   0  0  0  0  0  0  0  0  0  0  0  0
   10.4646   -4.0607   18.6742 C   0  0  0  0  0  0  0  0  0  0  0  0
   -0.9701  -12.1425   15.6155 C   0  0  0  0  0  0  0  0  0  0  0  0
    3.0200   -7.5351   15.7561 C   0  0  0  0  0  0  0  0  0  0  0  0
   10.5132   -3.6458   16.3262 C   0  0  0  0  0  0  0  0  0  0  0  0
   11.1345   -3.2004   17.4365 N   0  0  0  0  0  0  0  0  0  0  0  0
    9.9670   -5.1765   18.2104 C   0  0  0  0  0  0  0  0  0  0  0  0
    6.5330   -7.7425   16.8743 C   0  0  0  0  0  0  0  0  0  0  0  0
    8.5429   -6.5509   17.0586 N   0  0  0  0  0  0  0  0  0  0  0  0
    0.5702  -10.0014   14.2694 C   0  0  0  0  0  0  0  0  0  0  0  0
    7.0035   -5.9293   15.1024 O   0  0  0  0  0  0  0  0  0  0  0  0
    7.3879   -6.6674   16.2060 C   0  0  0  0  0  0  0  0  0  0  0  0
   11.2398   -3.6135   19.6497 C   0  0  0  0  0  0  0  0  0  0  0  0
    9.5039   -5.4976   17.1640 C   0  0  0  0  0  0  0  0  0  0  0  0
    5.0035   -8.0331   16.7716 C   0  0  0  0  0  0  0  0  0  0  0  0
    9.6807   -1.7636   23.7505 C   0  0  0  0  0  0  0  0  0  0  0  0
    9.7689   -4.6753   16.0599 C   0  0  0  0  0  0  0  0  0  0  0  0
    4.6482   -9.0497   17.4172 C   0  0  0  0  0  0  0  0  0  0  0  0
    2.4735   -8.5256   16.5702 C   0  0  0  0  0  0  0  0  0  0  0  0
   -0.1656  -10.7107   13.6034 C   0  0  0  0  0  0  0  0  0  0  0  0
  1  9  4  0
  1 18  4  0
  1 20  4  0
  1 29  4  0
  2  8  3  0
  2 13  2  0
  2 23  1  0
  3  7  1  0
  3 15  2  0
  3 27  3  0
  3 33  1  0
  4  6  4  0
  4 14  4  0
  5 10  1  0
  5 12  1  0
  5 14  2  0
  6  9  4  0
  6 28  4  0
  7 11  4  0
  7 24  4  0
  7 28  4  0
  8 22  1  0
  8 29  1  0
  9 30  4  0
 10 14  4  0
 10 30  4  0
 11 17  4  0
 11 26  2  0
 11 33  4  0
 12 21  3  0
 12 27  1  0
 13 17  4  0
 13 20  4  0
 13 24  1  0
 13 34  4  0
 14 31  3  0
 14 33  1  0
 15 32  4  0
 15 33  4  0
 16 20  3  0
 16 21  4  0
 16 27  1  0
 16 34  4  0
 18 31  2  0
 18 33  4  0
 19 20  4  0
 19 31  4  0
 21 28  4  0
 21 32  1  0
 22 26  1  0
 22 29  1  0
 23 26  1  0
 23 28  1  0
 24 34  4  0
 25 26  2  0
 28 31  4  0
 29 32  4  0
 30 32  1  0
M  END
$$$$

 Created by Python create_sdf_string function

 34 38  0  0  0  0  0  0  0  0999 V2000
    4.2949   -7.2549   15.9275 C   0  0  0  0  0  0  0  0  0  0  0  0
    8.7250   -7.7929   17.7454 C   0  0  0  0  0  0  0  0  0  0  0  0
    1.0619   -8.9411   16.4743 C   0  0  0  0  0  0  0  0  0  0  0  0
   10.4556   -3.5426   25.8382 C   0  0  0  0  0  0  0  0  0  0  0  0
   11.2595   -2.8864   22.2171 C   0  0  0  0  0  0  0  0  0  0  0  0
    9.5833   -2.4792   26.1355 C   0  0  0  0  0  0  0  0  0  0  0  0
    0.4397  -10.0248   15.7005 C   0  0  0  0  0  0  0  0  0  0  0  0
    7.4679   -8.5143   17.6651 C   0  0  0  0  0  0  0  0  0  0  0  0
    9.1926   -1.5532   25.1118 C   0  0  0  0  0  0  0  0  0  0  0  0
   10.5955   -2.7933   23.5563 C   0  0  0  0  0  0  0  0  0  0  0  0
   -0.2612  -11.0511   16.3289 C   0  0  0  0  0  0  0  0  0  0  0  0
   10.6017   -3.6296   21.0641 C   0  0  0  0  0  0  0  0  0  0  0  0
   -0.8299  -11.9160   14.2006 C   0  0  0  0  0  0  0  0  0  0  0  0
   10.9596   -3.6952   24.5361 C   0  0  0  0  0  0  0  0  0  0  0  0
    3.2953   -9.3548   17.2852 C   0  0  0  0  0  0  0  0  0  0  0  0
   10.6789   -4.0377   18.4898 C   0  0  0  0  0  0  0  0  0  0  0  0
   -0.8997  -12.0166   15.5727 C   0  0  0  0  0  0  0  0  0  0  0  0
    3.0180   -7.5393   15.8352 C   0  0  0  0  0  0  0  0  0  0  0  0
   10.5483   -3.6153   16.2293 C   0  0  0  0  0  0  0  0  0  0  0  0
   10.9835   -3.2546   17.4659 N   0  0  0  0  0  0  0  0  0  0  0  0
    9.9090   -5.1663   18.3605 C   0  0  0  0  0  0  0  0  0  0  0  0
    6.5195   -7.7186   16.8172 C   0  0  0  0  0  0  0  0  0  0  0  0
    8.5533   -6.5819   16.9565 N   0  0  0  0  0  0  0  0  0  0  0  0
    0.5216   -9.9614   14.3088 C   0  0  0  0  0  0  0  0  0  0  0  0
    7.0501   -5.9518   15.2345 O   0  0  0  0  0  0  0  0  0  0  0  0
    7.3398   -6.6411   16.2408 C   0  0  0  0  0  0  0  0  0  0  0  0
   11.2351   -3.5897   19.7588 C   0  0  0  0  0  0  0  0  0  0  0  0
    9.3977   -5.5187   17.1404 C   0  0  0  0  0  0  0  0  0  0  0  0
    5.1133   -8.0226   16.7024 C   0  0  0  0  0  0  0  0  0  0  0  0
    9.7141   -1.7334   23.7959 C   0  0  0  0  0  0  0  0  0  0  0  0
    9.7312   -4.7132   16.0692 C   0  0  0  0  0  0  0  0  0  0  0  0
    4.5525   -9.0736   17.3880 C   0  0  0  0  0  0  0  0  0  0  0  0
    2.4912   -8.6297   16.5019 C   0  0  0  0  0  0  0  0  0  0  0  0
   -0.1564  -10.9146   13.5662 C   0  0  0  0  0  0  0  0  0  0  0  0
  1 18  4  0
  1 29  4  0
  2  8  1  0
  2 23  1  0
  3  7  1  0
  3 33  1  0
  4  6  4  0
  4 14  4  0
  5 10  1  0
  5 12  1  0
  6  9  4  0
  7 11  4  0
  7 24  4  0
  8 22  1  0
  9 30  4  0
 10 14  4  0
 10 30  4  0
 11 17  4  0
 12 27  1  0
 13 17  4  0
 13 34  4  0
 15 32  4  0
 15 33  4  0
 16 20  4  0
 16 21  4  0
 16 27  1  0
 18 33  4  0
 19 20  4  0
 19 31  4  0
 21 28  4  0
 22 26  1  0
 22 29  1  0
 23 26  1  0
 23 28  1  0
 24 34  4  0
 25 26  2  0
 28 31  4  0
 29 32  4  0
M  END
$$$$

 Created by Python create_sdf_string function

 34 60  0  0  0  0  0  0  0  0999 V2000
    4.2464   -7.3529   15.7858 C   0  0  0  0  0  0  0  0  0  0  0  0
    8.7478   -7.8808   17.6826 C   0  0  0  0  0  0  0  0  0  0  0  0
    0.9443   -8.8126   16.6986 C   0  0  0  0  0  0  0  0  0  0  0  0
   10.3621   -3.6109   25.8771 C   0  0  0  0  0  0  0  0  0  0  0  0
   11.2979   -2.9641   22.2952 C   0  0  0  0  0  0  0  0  0  0  0  0
    9.6360   -2.4886   26.0208 C   0  0  0  0  0  0  0  0  0  0  0  0
    0.4118  -10.0322   15.7974 C   0  0  0  0  0  0  0  0  0  0  0  0
    7.4998   -8.4004   17.7180 C   0  0  0  0  0  0  0  0  0  0  0  0
    9.2427   -1.6623   25.0657 C   0  0  0  0  0  0  0  0  0  0  0  0
   10.4772   -2.9330   23.5240 C   0  0  0  0  0  0  0  0  0  0  0  0
   -0.3968  -11.1111   16.4654 C   0  0  0  0  0  0  0  0  0  0  0  0
   10.6356   -3.4294   21.0460 C   0  0  0  0  0  0  0  0  0  0  0  0
   -0.8084  -12.0319   14.2821 C   0  0  0  0  0  0  0  0  0  0  0  0
   10.9922   -3.7513   24.6339 C   0  0  0  0  0  0  0  0  0  0  0  0
    3.3013   -9.3723   17.2969 C   0  0  0  0  0  0  0  0  0  0  0  0
   10.6560   -4.0075   18.5371 C   0  0  0  0  0  0  0  0  0  0  0  0
   -0.8614  -11.9083   15.5736 C   0  0  0  0  0  0  0  0  0  0  0  0
    3.0802   -7.6538   15.9418 C   0  0  0  0  0  0  0  0  0  0  0  0
   10.5368   -3.6316   16.1940 C   0  0  0  0  0  0  0  0  0  0  0  0
   10.8979   -3.1533   17.5102 N   0  0  0  0  0  0  0  0  0  0  0  0
   10.0256   -5.2710   18.2458 C   0  0  0  0  0  0  0  0  0  0  0  0
    6.6834   -7.6672   16.8419 C   0  0  0  0  0  0  0  0  0  0  0  0
    8.6476   -6.5602   16.9166 N   0  0  0  0  0  0  0  0  0  0  0  0
    0.5276   -9.8886   14.3861 C   0  0  0  0  0  0  0  0  0  0  0  0
    7.0973   -5.8375   15.4371 O   0  0  0  0  0  0  0  0  0  0  0  0
    7.3512   -6.5987   16.2902 C   0  0  0  0  0  0  0  0  0  0  0  0
   11.3230   -3.5241   19.7381 F   0  0  0  0  0  0  0  0  0  0  0  0
    9.4917   -5.5266   17.3389 C   0  0  0  0  0  0  0  0  0  0  0  0
    5.1458   -7.9251   16.5458 C   0  0  0  0  0  0  0  0  0  0  0  0
    9.7838   -1.5816   23.7566 C   0  0  0  0  0  0  0  0  0  0  0  0
    9.6898   -4.6729   16.0190 C   0  0  0  0  0  0  0  0  0  0  0  0
    4.5313   -9.1555   17.4242 C   0  0  0  0  0  0  0  0  0  0  0  0
    2.6151   -8.5980   16.4898 C   0  0  0  0  0  0  0  0  0  0  0  0
   -0.2349  -10.8776   13.6368 C   0  0  0  0  0  0  0  0  0  0  0  0
  1  9  1  0
  1 18  4  0
  1 29  4  0
  2  8  1  0
  2 23  1  0
  3  5  3  0
  3  7  1  0
  3  8  3  0
  3 33  1  0
  3 34  4  0
  4  8  4  0
  4 11  3  0
  4 14  4  0
  5 10  1  0
  5 11  1  0
  5 12  1  0
  5 31  2  0
  6  9  2  0
  7 11  4  0
  7 24  4  0
  8 20  2  0
  8 22  1  0
  8 24  1  0
  9 18  3  0
  9 30  4  0
 10 14  4  0
 10 30  4  0
 11 16  1  0
 11 17  4  0
 12 25  2  0
 12 27  1  0
 13 17  4  0
 13 31  1  0
 13 34  4  0
 15 17  2  0
 15 32  4  0
 15 33  4  0
 16 20  4  0
 16 21  1  0
 16 27  1  0
 16 28  1  0
 18 19  1  0
 18 28  4  0
 18 29  4  0
 18 33  4  0
 19 20  4  0
 19 31  4  0
 21 28  4  0
 22 26  1  0
 22 29  1  0
 22 30  2  0
 23 26  1  0
 23 28  1  0
 24 34  4  0
 25 27  2  0
 25 28  2  0
 25 34  3  0
 28 31  4  0
 29 32  3  0
 30 33  3  0
M  END
$$$$

 Created by Python create_sdf_string function

 34 38  0  0  0  0  0  0  0  0999 V2000
    4.3105   -7.3210   15.8864 C   0  0  0  0  0  0  0  0  0  0  0  0
    8.7580   -7.7914   17.7112 C   0  0  0  0  0  0  0  0  0  0  0  0
    1.0569   -8.9031   16.5906 C   0  0  0  0  0  0  0  0  0  0  0  0
   10.3901   -3.5760   25.8426 C   0  0  0  0  0  0  0  0  0  0  0  0
   11.2992   -2.9819   22.2429 C   0  0  0  0  0  0  0  0  0  0  0  0
    9.5623   -2.5138   26.0582 C   0  0  0  0  0  0  0  0  0  0  0  0
    0.3873   -9.9863   15.7902 C   0  0  0  0  0  0  0  0  0  0  0  0
    7.4368   -8.4276   17.6765 C   0  0  0  0  0  0  0  0  0  0  0  0
    9.2648   -1.5938   25.0630 C   0  0  0  0  0  0  0  0  0  0  0  0
   10.6204   -2.8511   23.5674 C   0  0  0  0  0  0  0  0  0  0  0  0
   -0.3298  -11.0226   16.4071 C   0  0  0  0  0  0  0  0  0  0  0  0
   10.5819   -3.5189   21.0271 C   0  0  0  0  0  0  0  0  0  0  0  0
   -0.8451  -11.9391   14.2576 C   0  0  0  0  0  0  0  0  0  0  0  0
   10.9289   -3.7694   24.5481 C   0  0  0  0  0  0  0  0  0  0  0  0
    3.3340   -9.3786   17.3305 C   0  0  0  0  0  0  0  0  0  0  0  0
   10.6985   -4.0183   18.5236 C   0  0  0  0  0  0  0  0  0  0  0  0
   -0.9210  -11.9897   15.6241 C   0  0  0  0  0  0  0  0  0  0  0  0
    3.0498   -7.6070   15.8443 C   0  0  0  0  0  0  0  0  0  0  0  0
   10.4981   -3.5455   16.2530 C   0  0  0  0  0  0  0  0  0  0  0  0
   10.9520   -3.2234   17.5009 N   0  0  0  0  0  0  0  0  0  0  0  0
   10.0030   -5.1832   18.3954 C   0  0  0  0  0  0  0  0  0  0  0  0
    6.5530   -7.6922   16.7719 C   0  0  0  0  0  0  0  0  0  0  0  0
    8.5985   -6.5722   16.9805 N   0  0  0  0  0  0  0  0  0  0  0  0
    0.4527   -9.9351   14.3961 C   0  0  0  0  0  0  0  0  0  0  0  0
    7.0332   -5.7826   15.3941 O   0  0  0  0  0  0  0  0  0  0  0  0
    7.3470   -6.5747   16.2835 C   0  0  0  0  0  0  0  0  0  0  0  0
   11.2687   -3.5690   19.7389 N   0  0  0  0  0  0  0  0  0  0  0  0
    9.4603   -5.5130   17.1488 C   0  0  0  0  0  0  0  0  0  0  0  0
    5.1661   -8.0416   16.6813 C   0  0  0  0  0  0  0  0  0  0  0  0
    9.7861   -1.7480   23.7612 C   0  0  0  0  0  0  0  0  0  0  0  0
    9.7269   -4.6797   16.0613 C   0  0  0  0  0  0  0  0  0  0  0  0
    4.5952   -9.0932   17.3800 C   0  0  0  0  0  0  0  0  0  0  0  0
    2.5009   -8.6406   16.5737 C   0  0  0  0  0  0  0  0  0  0  0  0
   -0.1743  -10.9078   13.6325 C   0  0  0  0  0  0  0  0  0  0  0  0
  1 18  4  0
  1 29  4  0
  2  8  1  0
  2 23  1  0
  3  7  1  0
  3 33  1  0
  4  6  4  0
  4 14  4  0
  5 10  1  0
  5 12  1  0
  6  9  4  0
  7 11  4  0
  7 24  4  0
  8 22  1  0
  9 30  4  0
 10 14  4  0
 10 30  4  0
 11 17  4  0
 12 27  1  0
 13 17  4  0
 13 34  4  0
 15 32  4  0
 15 33  4  0
 16 20  4  0
 16 21  4  0
 16 27  1  0
 18 33  4  0
 19 20  4  0
 19 31  4  0
 21 28  4  0
 22 26  1  0
 22 29  1  0
 23 26  1  0
 23 28  1  0
 24 34  4  0
 25 26  2  0
 28 31  4  0
 29 32  4  0
M  END
$$$$

 Created by Python create_sdf_string function

 34 46  0  0  0  0  0  0  0  0999 V2000
    4.2451   -7.3952   15.8712 C   0  0  0  0  0  0  0  0  0  0  0  0
    8.8143   -7.7541   17.6478 C   0  0  0  0  0  0  0  0  0  0  0  0
    1.0657   -9.0195   16.4164 C   0  0  0  0  0  0  0  0  0  0  0  0
   10.4605   -3.6296   25.9934 C   0  0  0  0  0  0  0  0  0  0  0  0
   11.4454   -3.0038   22.2061 C   0  0  0  0  0  0  0  0  0  0  0  0
    9.6414   -2.5939   25.9913 C   0  0  0  0  0  0  0  0  0  0  0  0
    0.4099   -9.9944   15.8946 C   0  0  0  0  0  0  0  0  0  0  0  0
    7.4263   -8.4479   17.5709 C   0  0  0  0  0  0  0  0  0  0  0  0
    9.1988   -1.4696   25.1325 C   0  0  0  0  0  0  0  0  0  0  0  0
   10.6007   -2.9245   23.5272 C   0  0  0  0  0  0  0  0  0  0  0  0
   -0.2476  -11.0429   16.4579 C   0  0  0  0  0  0  0  0  0  0  0  0
   10.6045   -3.5647   20.9834 C   0  0  0  0  0  0  0  0  0  0  0  0
   -0.9635  -11.7337   14.2738 C   0  0  0  0  0  0  0  0  0  0  0  0
   10.9470   -3.7633   24.5632 C   0  0  0  0  0  0  0  0  0  0  0  0
    3.4346   -9.4056   17.3505 C   0  0  0  0  0  0  0  0  0  0  0  0
   10.6205   -3.8333   18.4853 C   0  0  0  0  0  0  0  0  0  0  0  0
   -0.9437  -11.9304   15.6360 C   0  0  0  0  0  0  0  0  0  0  0  0
    3.1025   -7.8156   15.9117 C   0  0  0  0  0  0  0  0  0  0  0  0
   10.5799   -3.5617   16.2716 C   0  0  0  0  0  0  0  0  0  0  0  0
   11.0005   -3.2711   17.4925 N   0  0  0  0  0  0  0  0  0  0  0  0
    9.9892   -5.2750   18.4897 C   0  0  0  0  0  0  0  0  0  0  0  0
    6.6471   -7.7844   16.6483 C   0  0  0  0  0  0  0  0  0  0  0  0
    8.6360   -6.6707   16.9969 N   0  0  0  0  0  0  0  0  0  0  0  0
    0.4450   -9.9924   14.3454 C   0  0  0  0  0  0  0  0  0  0  0  0
    7.0518   -5.6667   15.5763 O   0  0  0  0  0  0  0  0  0  0  0  0
    7.3969   -6.5600   16.2325 C   0  0  0  0  0  0  0  0  0  0  0  0
   11.1054   -3.4182   19.6538 N   0  0  0  0  0  0  0  0  0  0  0  0
    9.5181   -5.4126   17.3009 C   0  0  0  0  0  0  0  0  0  0  0  0
    5.1066   -8.0310   16.8086 C   0  0  0  0  0  0  0  0  0  0  0  0
    9.6774   -1.7527   23.8786 C   0  0  0  0  0  0  0  0  0  0  0  0
    9.7031   -4.6866   16.0892 C   0  0  0  0  0  0  0  0  0  0  0  0
    4.5749   -9.1166   17.2119 C   0  0  0  0  0  0  0  0  0  0  0  0
    2.5134   -8.5953   16.6322 C   0  0  0  0  0  0  0  0  0  0  0  0
   -0.0687  -10.9195   13.5952 C   0  0  0  0  0  0  0  0  0  0  0  0
  1  7  4  0
  1 18  4  0
  1 29  4  0
  2  8  1  0
  2 23  1  0
  3 33  1  0
  4  6  4  0
  4 14  4  0
  5  8  2  0
  5 10  1  0
  5 12  1  0
  5 22  4  0
  6  9  4  0
  6 14  2  0
  6 21  4  0
  7 24  4  0
  8 22  1  0
  9 16  3  0
  9 22  1  0
  9 24  2  0
  9 30  4  0
 10 14  4  0
 10 30  4  0
 11 17  4  0
 12 27  1  0
 13 17  4  0
 15 30  3  0
 15 32  4  0
 15 33  4  0
 16 20  4  0
 16 21  4  0
 18 33  4  0
 19 20  4  0
 19 31  4  0
 21 28  4  0
 22 26  1  0
 22 29  1  0
 23 26  1  0
 23 28  1  0
 24 34  4  0
 25 26  2  0
 25 30  3  0
 28 29  1  0
 28 31  4  0
 29 30  4  0
 29 32  4  0
M  END
$$$$

 Created by Python create_sdf_string function

 34 38  0  0  0  0  0  0  0  0999 V2000
    4.3084   -7.3592   15.9070 C   0  0  0  0  0  0  0  0  0  0  0  0
    8.7766   -7.7660   17.6972 C   0  0  0  0  0  0  0  0  0  0  0  0
    1.0865   -8.9995   16.5549 C   0  0  0  0  0  0  0  0  0  0  0  0
   10.4289   -3.5835   25.8661 C   0  0  0  0  0  0  0  0  0  0  0  0
   11.3113   -2.9943   22.2355 C   0  0  0  0  0  0  0  0  0  0  0  0
    9.5890   -2.5066   26.0830 C   0  0  0  0  0  0  0  0  0  0  0  0
    0.4137  -10.0231   15.7718 C   0  0  0  0  0  0  0  0  0  0  0  0
    7.4832   -8.4834   17.5728 C   0  0  0  0  0  0  0  0  0  0  0  0
    9.2451   -1.6023   25.0921 C   0  0  0  0  0  0  0  0  0  0  0  0
   10.6272   -2.8664   23.5692 C   0  0  0  0  0  0  0  0  0  0  0  0
   -0.3169  -11.0200   16.4214 C   0  0  0  0  0  0  0  0  0  0  0  0
   10.5745   -3.6033   21.0513 C   0  0  0  0  0  0  0  0  0  0  0  0
   -0.9502  -11.8731   14.2880 C   0  0  0  0  0  0  0  0  0  0  0  0
   10.9552   -3.7699   24.5522 C   0  0  0  0  0  0  0  0  0  0  0  0
    3.3698   -9.4290   17.3399 C   0  0  0  0  0  0  0  0  0  0  0  0
   10.6606   -3.9475   18.5393 C   0  0  0  0  0  0  0  0  0  0  0  0
   -1.0017  -11.9343   15.6351 C   0  0  0  0  0  0  0  0  0  0  0  0
    3.0315   -7.6465   15.8809 C   0  0  0  0  0  0  0  0  0  0  0  0
   10.5616   -3.5595   16.2483 C   0  0  0  0  0  0  0  0  0  0  0  0
   10.9751   -3.2307   17.5013 N   0  0  0  0  0  0  0  0  0  0  0  0
    9.9555   -5.1003   18.4187 C   0  0  0  0  0  0  0  0  0  0  0  0
    6.6043   -7.7442   16.6502 C   0  0  0  0  0  0  0  0  0  0  0  0
    8.5977   -6.5468   17.0125 N   0  0  0  0  0  0  0  0  0  0  0  0
    0.4820   -9.9659   14.3828 C   0  0  0  0  0  0  0  0  0  0  0  0
    7.0184   -5.6629   15.4997 O   0  0  0  0  0  0  0  0  0  0  0  0
    7.3630   -6.5311   16.2951 C   0  0  0  0  0  0  0  0  0  0  0  0
   11.1020   -3.4400   19.7465 N   0  0  0  0  0  0  0  0  0  0  0  0
    9.4450   -5.4810   17.1824 C   0  0  0  0  0  0  0  0  0  0  0  0
    5.1782   -8.1042   16.6382 C   0  0  0  0  0  0  0  0  0  0  0  0
    9.7666   -1.7943   23.7751 C   0  0  0  0  0  0  0  0  0  0  0  0
    9.7551   -4.6712   16.0940 C   0  0  0  0  0  0  0  0  0  0  0  0
    4.6254   -9.1345   17.3703 C   0  0  0  0  0  0  0  0  0  0  0  0
    2.5150   -8.7092   16.5782 C   0  0  0  0  0  0  0  0  0  0  0  0
   -0.2189  -10.9192   13.6290 C   0  0  0  0  0  0  0  0  0  0  0  0
  1 18  4  0
  1 29  4  0
  2  8  1  0
  2 23  1  0
  3  7  1  0
  3 33  1  0
  4  6  4  0
  4 14  4  0
  5 10  1  0
  5 12  1  0
  6  9  4  0
  7 11  4  0
  7 24  4  0
  8 22  1  0
  9 30  4  0
 10 14  4  0
 10 30  4  0
 11 17  4  0
 12 27  1  0
 13 17  4  0
 13 34  4  0
 15 32  4  0
 15 33  4  0
 16 20  4  0
 16 21  4  0
 16 27  1  0
 18 33  4  0
 19 20  4  0
 19 31  4  0
 21 28  4  0
 22 26  1  0
 22 29  1  0
 23 26  1  0
 23 28  1  0
 24 34  4  0
 25 26  2  0
 28 31  4  0
 29 32  4  0
M  END
$$$$

 Created by Python create_sdf_string function

 34 46  0  0  0  0  0  0  0  0999 V2000
    4.2262   -7.5495   15.9734 C   0  0  0  0  0  0  0  0  0  0  0  0
    8.8510   -7.6827   17.6306 C   0  0  0  0  0  0  0  0  0  0  0  0
    1.1664   -9.0182   16.5517 C   0  0  0  0  0  0  0  0  0  0  0  0
   10.4063   -3.6753   25.8997 C   0  0  0  0  0  0  0  0  0  0  0  0
   11.1796   -2.9920   22.2144 C   0  0  0  0  0  0  0  0  0  0  0  0
    9.4607   -2.4185   26.1256 C   0  0  0  0  0  0  0  0  0  0  0  0
    0.3708   -9.7851   15.8040 C   0  0  0  0  0  0  0  0  0  0  0  0
    7.4735   -8.4411   17.6718 C   0  0  0  0  0  0  0  0  0  0  0  0
    9.2374   -1.6656   25.1143 C   0  0  0  0  0  0  0  0  0  0  0  0
   10.7054   -2.7239   23.5762 C   0  0  0  0  0  0  0  0  0  0  0  0
   -0.4201  -11.1842   16.4834 C   0  0  0  0  0  0  0  0  0  0  0  0
   10.5249   -3.5750   21.1637 C   0  0  0  0  0  0  0  0  0  0  0  0
   -0.9867  -11.7975   14.2853 C   0  0  0  0  0  0  0  0  0  0  0  0
   10.9733   -3.7568   24.5244 C   0  0  0  0  0  0  0  0  0  0  0  0
    3.3740   -9.3811   17.3913 C   0  0  0  0  0  0  0  0  0  0  0  0
   10.6873   -3.9723   18.6194 C   0  0  0  0  0  0  0  0  0  0  0  0
   -0.9725  -11.8960   15.5788 C   0  0  0  0  0  0  0  0  0  0  0  0
    3.0099   -7.6060   15.8581 C   0  0  0  0  0  0  0  0  0  0  0  0
   10.5119   -3.5425   16.1859 C   0  0  0  0  0  0  0  0  0  0  0  0
   11.0196   -3.3760   17.4205 N   0  0  0  0  0  0  0  0  0  0  0  0
    6.4870   -7.6271   16.6142 C   0  0  0  0  0  0  0  0  0  0  0  0
    8.5050   -6.4018   16.9078 N   0  0  0  0  0  0  0  0  0  0  0  0
    0.4961  -10.0183   14.3989 C   0  0  0  0  0  0  0  0  0  0  0  0
    6.9434   -5.7037   15.5428 O   0  0  0  0  0  0  0  0  0  0  0  0
    7.3747   -6.4257   16.3584 C   0  0  0  0  0  0  0  0  0  0  0  0
   11.1067   -3.3868   19.9635 N   0  0  0  0  0  0  0  0  0  0  0  0
    9.5216   -5.4464   17.2841 C   0  0  0  0  0  0  0  0  0  0  0  0
    5.0699   -8.0454   16.7031 C   0  0  0  0  0  0  0  0  0  0  0  0
    9.7990   -1.9314   23.7830 C   0  0  0  0  0  0  0  0  0  0  0  0
    9.8622   -4.6205   16.0974 C   0  0  0  0  0  0  0  0  0  0  0  0
    4.6165   -9.0286   17.3733 C   0  0  0  0  0  0  0  0  0  0  0  0
    2.5449   -8.8010   16.5071 C   0  0  0  0  0  0  0  0  0  0  0  0
   -0.1473  -10.8905   13.7046 C   0  0  0  0  0  0  0  0  0  0  0  0
    9.9993   -5.0818   18.4515 He  0  0  0  0  0  0  0  0  0  0  0  0
  1 18  4  0
  1 28  4  0
  2  8  1  0
  2 22  1  0
  3  7  1  0
  3 28  2  0
  3 32  2  0
  4  6  4  0
  4 14  4  0
  5 10  1  0
  5 12  3  0
  6  9  4  0
  7 11  4  0
  7 23  4  0
  8 18  4  0
  8 21  1  0
  8 31  2  0
  9 29  4  0
 10 14  3  0
 10 21  3  0
 10 29  4  0
 11 17  4  0
 12 26  1  0
 13 17  1  0
 13 30  3  0
 13 33  4  0
 14 19  4  0
 14 32  3  0
 15 31  4  0
 15 32  4  0
 16 20  4  0
 16 22  4  0
 16 26  1  0
 17 32  3  0
 18 32  4  0
 19 20  4  0
 19 30  4  0
 20 26  2  0
 21 28  1  0
 22 25  1  0
 22 27  1  0
 23 33  4  0
 24 25  2  0
 26 28  2  0
 27 30  4  0
 28 31  4  0
M  END
$$$$

 Created by Python create_sdf_string function

 34 38  0  0  0  0  0  0  0  0999 V2000
    4.2821   -7.3731   15.9092 C   0  0  0  0  0  0  0  0  0  0  0  0
    8.7924   -7.6736   17.6712 C   0  0  0  0  0  0  0  0  0  0  0  0
    1.1140   -9.0365   16.5675 C   0  0  0  0  0  0  0  0  0  0  0  0
   10.3962   -3.6013   25.8772 C   0  0  0  0  0  0  0  0  0  0  0  0
   11.2347   -2.9605   22.2591 C   0  0  0  0  0  0  0  0  0  0  0  0
    9.5214   -2.5227   26.1042 C   0  0  0  0  0  0  0  0  0  0  0  0
    0.4093  -10.0201   15.7773 C   0  0  0  0  0  0  0  0  0  0  0  0
    7.4714   -8.4057   17.6051 C   0  0  0  0  0  0  0  0  0  0  0  0
    9.2159   -1.6373   25.0801 C   0  0  0  0  0  0  0  0  0  0  0  0
   10.6204   -2.8620   23.5935 C   0  0  0  0  0  0  0  0  0  0  0  0
   -0.3774  -11.0060   16.4020 C   0  0  0  0  0  0  0  0  0  0  0  0
   10.5453   -3.6010   21.1357 C   0  0  0  0  0  0  0  0  0  0  0  0
   -0.9708  -11.8507   14.2541 C   0  0  0  0  0  0  0  0  0  0  0  0
   10.9696   -3.7631   24.5829 C   0  0  0  0  0  0  0  0  0  0  0  0
    3.3422   -9.4064   17.3678 C   0  0  0  0  0  0  0  0  0  0  0  0
   10.6811   -3.9479   18.5827 C   0  0  0  0  0  0  0  0  0  0  0  0
   -1.0453  -11.9173   15.6019 C   0  0  0  0  0  0  0  0  0  0  0  0
    3.0004   -7.6884   15.8443 C   0  0  0  0  0  0  0  0  0  0  0  0
   10.6224   -3.5584   16.2641 C   0  0  0  0  0  0  0  0  0  0  0  0
   11.0377   -3.2342   17.5372 N   0  0  0  0  0  0  0  0  0  0  0  0
    9.9656   -5.0683   18.4391 C   0  0  0  0  0  0  0  0  0  0  0  0
    6.5531   -7.6929   16.6969 C   0  0  0  0  0  0  0  0  0  0  0  0
    8.5631   -6.4247   17.0356 N   0  0  0  0  0  0  0  0  0  0  0  0
    0.4839   -9.9454   14.3806 C   0  0  0  0  0  0  0  0  0  0  0  0
    6.9450   -5.6485   15.5072 O   0  0  0  0  0  0  0  0  0  0  0  0
    7.3198   -6.4758   16.3183 C   0  0  0  0  0  0  0  0  0  0  0  0
   11.0845   -3.4687   19.8409 N   0  0  0  0  0  0  0  0  0  0  0  0
    9.4563   -5.4064   17.1935 C   0  0  0  0  0  0  0  0  0  0  0  0
    5.1375   -8.0715   16.6848 C   0  0  0  0  0  0  0  0  0  0  0  0
    9.7602   -1.8033   23.7976 C   0  0  0  0  0  0  0  0  0  0  0  0
    9.7809   -4.6601   16.0977 C   0  0  0  0  0  0  0  0  0  0  0  0
    4.6056   -9.0996   17.4315 C   0  0  0  0  0  0  0  0  0  0  0  0
    2.4772   -8.7239   16.5814 C   0  0  0  0  0  0  0  0  0  0  0  0
   -0.2118  -10.8872   13.6272 C   0  0  0  0  0  0  0  0  0  0  0  0
  1 18  4  0
  1 29  4  0
  2  8  1  0
  2 23  1  0
  3  7  1  0
  3 33  1  0
  4  6  4  0
  4 14  4  0
  5 10  1  0
  5 12  1  0
  6  9  4  0
  7 11  4  0
  7 24  4  0
  8 22  1  0
  9 30  4  0
 10 14  4  0
 10 30  4  0
 11 17  4  0
 12 27  1  0
 13 17  4  0
 13 34  4  0
 15 32  4  0
 15 33  4  0
 16 20  4  0
 16 21  4  0
 16 27  1  0
 18 33  4  0
 19 20  4  0
 19 31  4  0
 21 28  4  0
 22 26  1  0
 22 29  1  0
 23 26  1  0
 23 28  1  0
 24 34  4  0
 25 26  2  0
 28 31  4  0
 29 32  4  0
M  END
$$$$

 Created by Python create_sdf_string function

 34 41  0  0  0  0  0  0  0  0999 V2000
    4.1939   -7.5922   15.9126 C   0  0  0  0  0  0  0  0  0  0  0  0
    8.7695   -7.6650   17.7507 C   0  0  0  0  0  0  0  0  0  0  0  0
    1.0612   -9.0447   16.5968 C   0  0  0  0  0  0  0  0  0  0  0  0
   10.4773   -3.6619   25.8673 C   0  0  0  0  0  0  0  0  0  0  0  0
   11.2307   -2.9642   22.2491 C   0  0  0  0  0  0  0  0  0  0  0  0
    9.4422   -2.5112   26.2674 C   0  0  0  0  0  0  0  0  0  0  0  0
    0.3828   -9.9706   15.8028 C   0  0  0  0  0  0  0  0  0  0  0  0
    7.5541   -8.4139   17.5450 C   0  0  0  0  0  0  0  0  0  0  0  0
   10.7094   -2.9370   23.6052 C   0  0  0  0  0  0  0  0  0  0  0  0
   -0.3584  -11.0140   16.3765 C   0  0  0  0  0  0  0  0  0  0  0  0
   10.5758   -3.6425   21.1452 C   0  0  0  0  0  0  0  0  0  0  0  0
   -0.9536  -11.9542   14.3749 C   0  0  0  0  0  0  0  0  0  0  0  0
   10.8695   -3.8871   24.5686 C   0  0  0  0  0  0  0  0  0  0  0  0
    3.3469   -9.3849   17.4219 C   0  0  0  0  0  0  0  0  0  0  0  0
   10.7567   -3.8955   18.7187 C   0  0  0  0  0  0  0  0  0  0  0  0
   -1.0925  -11.8609   15.6190 C   0  0  0  0  0  0  0  0  0  0  0  0
    2.8655   -7.6302   15.9241 C   0  0  0  0  0  0  0  0  0  0  0  0
   10.6738   -3.5330   16.3451 C   0  0  0  0  0  0  0  0  0  0  0  0
   11.1214   -3.3066   17.5129 N   0  0  0  0  0  0  0  0  0  0  0  0
   10.0118   -5.1229   18.4733 C   0  0  0  0  0  0  0  0  0  0  0  0
    6.5573   -7.9179   16.7083 Cl  0  0  0  0  0  0  0  0  0  0  0  0
    8.5407   -6.3794   16.9703 N   0  0  0  0  0  0  0  0  0  0  0  0
    0.4889   -9.8443   14.4929 C   0  0  0  0  0  0  0  0  0  0  0  0
    7.0143   -5.8017   15.4472 O   0  0  0  0  0  0  0  0  0  0  0  0
    7.2770   -6.4801   16.2807 C   0  0  0  0  0  0  0  0  0  0  0  0
   11.1366   -3.3613   19.9041 N   0  0  0  0  0  0  0  0  0  0  0  0
    9.4868   -5.4462   17.2438 C   0  0  0  0  0  0  0  0  0  0  0  0
    5.0530   -8.0529   16.8013 C   0  0  0  0  0  0  0  0  0  0  0  0
    9.7995   -1.7099   23.7247 C   0  0  0  0  0  0  0  0  0  0  0  0
    4.4774   -9.1299   17.4991 C   0  0  0  0  0  0  0  0  0  0  0  0
    2.4415   -8.8572   16.5630 C   0  0  0  0  0  0  0  0  0  0  0  0
    9.3566   -1.6690   25.0244 He  0  0  0  0  0  0  0  0  0  0  0  0
    9.8290   -4.7438   16.1166 He  0  0  0  0  0  0  0  0  0  0  0  0
   -0.1238  -10.7905   13.6468 He  0  0  0  0  0  0  0  0  0  0  0  0
  1 12  4  0
  1 17  4  0
  1 28  4  0
  2  8  1  0
  2 22  1  0
  3  7  1  0
  3 10  4  0
  3 31  1  0
  4  6  4  0
  4 13  4  0
  4 22  4  0
  5  6  2  0
  5  9  1  0
  5 11  1  0
  6 22  3  0
  7 10  4  0
  7 13  4  0
  7 23  4  0
  7 26  4  0
  8 21  1  0
  9 13  4  0
  9 29  4  0
 10 16  4  0
 11 26  1  0
 12 16  4  0
 14 30  4  0
 14 31  4  0
 15 19  4  0
 15 20  4  0
 15 25  4  0
 15 26  1  0
 17 31  4  0
 18 19  4  0
 19 31  2  0
 20 27  4  0
 21 25  1  0
 21 28  2  0
 22 25  1  0
 22 27  1  0
 24 25  2  0
 28 30  4  0
M  END
$$$$

 Created by Python create_sdf_string function

 34 38  0  0  0  0  0  0  0  0999 V2000
    4.2295   -7.4390   15.9479 C   0  0  0  0  0  0  0  0  0  0  0  0
    8.7435   -7.6531   17.7595 C   0  0  0  0  0  0  0  0  0  0  0  0
    1.0533   -9.0436   16.6399 C   0  0  0  0  0  0  0  0  0  0  0  0
   10.4018   -3.6484   25.8720 C   0  0  0  0  0  0  0  0  0  0  0  0
   11.2755   -2.9904   22.2431 C   0  0  0  0  0  0  0  0  0  0  0  0
    9.5478   -2.5370   26.1272 C   0  0  0  0  0  0  0  0  0  0  0  0
    0.3759   -9.9979   15.8228 C   0  0  0  0  0  0  0  0  0  0  0  0
    7.5111   -8.4735   17.5698 C   0  0  0  0  0  0  0  0  0  0  0  0
    9.2934   -1.6269   25.0890 C   0  0  0  0  0  0  0  0  0  0  0  0
   10.6293   -2.8955   23.5757 C   0  0  0  0  0  0  0  0  0  0  0  0
   -0.4115  -10.9849   16.4046 C   0  0  0  0  0  0  0  0  0  0  0  0
   10.5804   -3.6620   21.1308 C   0  0  0  0  0  0  0  0  0  0  0  0
   -0.9307  -11.8557   14.2602 C   0  0  0  0  0  0  0  0  0  0  0  0
   10.9018   -3.8270   24.5618 C   0  0  0  0  0  0  0  0  0  0  0  0
    3.2889   -9.4325   17.4470 C   0  0  0  0  0  0  0  0  0  0  0  0
   10.7190   -3.9409   18.6234 C   0  0  0  0  0  0  0  0  0  0  0  0
   -1.0720  -11.8938   15.6245 C   0  0  0  0  0  0  0  0  0  0  0  0
    2.9362   -7.7206   15.8843 C   0  0  0  0  0  0  0  0  0  0  0  0
   10.6984   -3.5855   16.3223 C   0  0  0  0  0  0  0  0  0  0  0  0
   11.1014   -3.2504   17.5822 N   0  0  0  0  0  0  0  0  0  0  0  0
    9.9779   -5.0670   18.4766 C   0  0  0  0  0  0  0  0  0  0  0  0
    6.5186   -7.7839   16.7308 C   0  0  0  0  0  0  0  0  0  0  0  0
    8.5373   -6.4450   17.0515 N   0  0  0  0  0  0  0  0  0  0  0  0
    0.4614   -9.9028   14.4206 C   0  0  0  0  0  0  0  0  0  0  0  0
    6.9620   -5.7943   15.4389 O   0  0  0  0  0  0  0  0  0  0  0  0
    7.3097   -6.5554   16.3028 C   0  0  0  0  0  0  0  0  0  0  0  0
   11.1133   -3.4365   19.8605 N   0  0  0  0  0  0  0  0  0  0  0  0
    9.4700   -5.4145   17.2270 C   0  0  0  0  0  0  0  0  0  0  0  0
    5.0816   -8.1323   16.7150 C   0  0  0  0  0  0  0  0  0  0  0  0
    9.8252   -1.7776   23.7962 C   0  0  0  0  0  0  0  0  0  0  0  0
    9.8349   -4.6688   16.1433 C   0  0  0  0  0  0  0  0  0  0  0  0
    4.5476   -9.1125   17.4858 C   0  0  0  0  0  0  0  0  0  0  0  0
    2.4331   -8.7524   16.6460 C   0  0  0  0  0  0  0  0  0  0  0  0
   -0.1929  -10.8617   13.6411 C   0  0  0  0  0  0  0  0  0  0  0  0
  1 18  4  0
  1 29  4  0
  2  8  1  0
  2 23  1  0
  3  7  1  0
  3 33  1  0
  4  6  4  0
  4 14  4  0
  5 10  1  0
  5 12  1  0
  6  9  4  0
  7 11  4  0
  7 24  4  0
  8 22  1  0
  9 30  4  0
 10 14  4  0
 10 30  4  0
 11 17  4  0
 12 27  1  0
 13 17  4  0
 13 34  4  0
 15 32  4  0
 15 33  4  0
 16 20  4  0
 16 21  4  0
 16 27  1  0
 18 33  4  0
 19 20  4  0
 19 31  4  0
 21 28  4  0
 22 26  1  0
 22 29  1  0
 23 26  1  0
 23 28  1  0
 24 34  4  0
 25 26  2  0
 28 31  4  0
 29 32  4  0
M  END
$$$$

 Created by Python create_sdf_string function

 34 51  0  0  0  0  0  0  0  0999 V2000
    4.2243   -7.4182   15.8923 C   0  0  0  0  0  0  0  0  0  0  0  0
    8.7741   -7.6648   17.7747 C   0  0  0  0  0  0  0  0  0  0  0  0
    1.0689   -9.0130   16.5775 C   0  0  0  0  0  0  0  0  0  0  0  0
   10.2975   -3.6123   25.8985 C   0  0  0  0  0  0  0  0  0  0  0  0
   11.2918   -3.0412   22.2042 C   0  0  0  0  0  0  0  0  0  0  0  0
    9.5372   -2.5066   26.0993 C   0  0  0  0  0  0  0  0  0  0  0  0
    0.2940   -9.9914   15.8270 C   0  0  0  0  0  0  0  0  0  0  0  0
    7.6398   -8.4015   17.6394 C   0  0  0  0  0  0  0  0  0  0  0  0
    9.2940   -1.5313   25.0867 C   0  0  0  0  0  0  0  0  0  0  0  0
   10.6229   -2.7278   23.5559 C   0  0  0  0  0  0  0  0  0  0  0  0
   -0.3883  -10.9800   16.3333 C   0  0  0  0  0  0  0  0  0  0  0  0
   10.6625   -3.6291   21.0149 C   0  0  0  0  0  0  0  0  0  0  0  0
   -1.0916  -11.8619   14.3820 C   0  0  0  0  0  0  0  0  0  0  0  0
   10.9138   -3.8353   24.5638 C   0  0  0  0  0  0  0  0  0  0  0  0
    3.2005   -9.5883   17.4997 C   0  0  0  0  0  0  0  0  0  0  0  0
   10.7095   -3.9351   18.6565 C   0  0  0  0  0  0  0  0  0  0  0  0
   -1.1090  -11.8977   15.5280 C   0  0  0  0  0  0  0  0  0  0  0  0
    2.8878   -7.7052   15.7855 C   0  0  0  0  0  0  0  0  0  0  0  0
   10.6458   -3.5699   16.2948 C   0  0  0  0  0  0  0  0  0  0  0  0
   11.0326   -3.2540   17.5737 N   0  0  0  0  0  0  0  0  0  0  0  0
   10.0549   -4.9945   18.5111 C   0  0  0  0  0  0  0  0  0  0  0  0
    8.4919   -6.4503   17.1774 N   0  0  0  0  0  0  0  0  0  0  0  0
    0.3697   -9.9688   14.3759 C   0  0  0  0  0  0  0  0  0  0  0  0
    6.9436   -5.7381   15.4043 O   0  0  0  0  0  0  0  0  0  0  0  0
    7.1971   -6.5946   16.1726 C   0  0  0  0  0  0  0  0  0  0  0  0
   11.2539   -3.4455   19.7310 N   0  0  0  0  0  0  0  0  0  0  0  0
    9.5184   -5.2912   17.1555 C   0  0  0  0  0  0  0  0  0  0  0  0
    5.1044   -8.1892   16.7387 C   0  0  0  0  0  0  0  0  0  0  0  0
    9.8746   -1.7841   23.7403 C   0  0  0  0  0  0  0  0  0  0  0  0
    9.8475   -4.6103   16.0421 C   0  0  0  0  0  0  0  0  0  0  0  0
    4.5841   -9.1163   17.5065 C   0  0  0  0  0  0  0  0  0  0  0  0
    2.3544   -8.7546   16.5718 C   0  0  0  0  0  0  0  0  0  0  0  0
   -0.0814  -10.8957   13.6638 C   0  0  0  0  0  0  0  0  0  0  0  0
    6.5338   -7.8114   16.7644 He  0  0  0  0  0  0  0  0  0  0  0  0
  1 16  1  0
  1 18  4  0
  1 26  4  0
  2  8  1  0
  2 22  1  0
  3  6  1  0
  3  7  1  0
  3  8  2  0
  3 32  2  0
  4  6  4  0
  4 14  4  0
  4 28  4  0
  5 10  1  0
  5 12  1  0
  6  9  4  0
  6 16  1  0
  7 11  4  0
  7 23  4  0
  7 28  3  0
  9 27  4  0
  9 29  4  0
 10 14  4  0
 10 26  1  0
 10 29  4  0
 11 17  4  0
 11 26  3  0
 12 15  4  0
 12 26  1  0
 13 17  4  0
 13 33  4  0
 15 31  4  0
 15 32  4  0
 16 20  4  0
 16 21  4  0
 16 26  1  0
 17 21  1  0
 18 32  4  0
 18 33  1  0
 19 20  4  0
 19 23  3  0
 19 30  4  0
 21 27  4  0
 21 32  3  0
 22 25  1  0
 22 27  1  0
 23 33  4  0
 24 25  2  0
 25 33  1  0
 27 30  4  0
 28 30  3  0
 28 31  4  0
M  END
$$$$

 Created by Python create_sdf_string function

 34 38  0  0  0  0  0  0  0  0999 V2000
    4.2523   -7.4253   15.9060 C   0  0  0  0  0  0  0  0  0  0  0  0
    8.7392   -7.6261   17.7759 C   0  0  0  0  0  0  0  0  0  0  0  0
    1.0364   -9.0367   16.5766 C   0  0  0  0  0  0  0  0  0  0  0  0
   10.3184   -3.6020   25.8467 C   0  0  0  0  0  0  0  0  0  0  0  0
   11.3035   -2.9999   22.2461 C   0  0  0  0  0  0  0  0  0  0  0  0
    9.5286   -2.4790   26.0753 C   0  0  0  0  0  0  0  0  0  0  0  0
    0.3370  -10.0030   15.7867 C   0  0  0  0  0  0  0  0  0  0  0  0
    7.5026   -8.4548   17.6237 C   0  0  0  0  0  0  0  0  0  0  0  0
    9.2915   -1.5383   25.0713 C   0  0  0  0  0  0  0  0  0  0  0  0
   10.6335   -2.8573   23.5776 C   0  0  0  0  0  0  0  0  0  0  0  0
   -0.4604  -10.9735   16.3896 C   0  0  0  0  0  0  0  0  0  0  0  0
   10.6385   -3.6316   21.0629 C   0  0  0  0  0  0  0  0  0  0  0  0
   -0.9964  -11.8544   14.2527 C   0  0  0  0  0  0  0  0  0  0  0  0
   10.8897   -3.7967   24.5505 C   0  0  0  0  0  0  0  0  0  0  0  0
    3.2738   -9.4551   17.4317 C   0  0  0  0  0  0  0  0  0  0  0  0
   10.7314   -3.9162   18.5733 C   0  0  0  0  0  0  0  0  0  0  0  0
   -1.1205  -11.8881   15.6101 C   0  0  0  0  0  0  0  0  0  0  0  0
    2.9488   -7.7221   15.8540 C   0  0  0  0  0  0  0  0  0  0  0  0
   10.6631   -3.5427   16.2870 C   0  0  0  0  0  0  0  0  0  0  0  0
   11.0861   -3.2029   17.5408 N   0  0  0  0  0  0  0  0  0  0  0  0
    9.9638   -5.0102   18.4536 C   0  0  0  0  0  0  0  0  0  0  0  0
    6.5152   -7.7644   16.7767 C   0  0  0  0  0  0  0  0  0  0  0  0
    8.5139   -6.4162   17.0546 N   0  0  0  0  0  0  0  0  0  0  0  0
    0.4259   -9.9614   14.3946 C   0  0  0  0  0  0  0  0  0  0  0  0
    6.9428   -5.7858   15.4289 O   0  0  0  0  0  0  0  0  0  0  0  0
    7.2589   -6.5554   16.3142 C   0  0  0  0  0  0  0  0  0  0  0  0
   11.2151   -3.4722   19.7844 N   0  0  0  0  0  0  0  0  0  0  0  0
    9.4472   -5.3679   17.2236 C   0  0  0  0  0  0  0  0  0  0  0  0
    5.1173   -8.1099   16.7157 C   0  0  0  0  0  0  0  0  0  0  0  0
    9.8496   -1.7309   23.7821 C   0  0  0  0  0  0  0  0  0  0  0  0
    9.7983   -4.6172   16.1238 C   0  0  0  0  0  0  0  0  0  0  0  0
    4.5628   -9.1267   17.4641 C   0  0  0  0  0  0  0  0  0  0  0  0
    2.4124   -8.7572   16.6051 C   0  0  0  0  0  0  0  0  0  0  0  0
   -0.2289  -10.9049   13.6321 C   0  0  0  0  0  0  0  0  0  0  0  0
  1 18  4  0
  1 29  4  0
  2  8  1  0
  2 23  1  0
  3  7  1  0
  3 33  2  0
  4  6  4  0
  4 14  4  0
  5 10  1  0
  5 12  1  0
  6  9  4  0
  7 11  4  0
  7 24  4  0
  8 22  1  0
  9 30  4  0
 10 14  4  0
 10 30  4  0
 11 17  4  0
 12 27  1  0
 13 17  4  0
 13 34  4  0
 15 32  4  0
 15 33  4  0
 16 20  4  0
 16 21  4  0
 16 27  1  0
 18 33  4  0
 19 20  4  0
 19 31  4  0
 21 28  4  0
 22 26  1  0
 22 29  1  0
 23 26  1  0
 23 28  1  0
 24 34  4  0
 25 26  2  0
 28 31  4  0
 29 32  4  0
M  END
$$$$

 Created by Python create_sdf_string function

 34 47  0  0  0  0  0  0  0  0999 V2000
    4.2828   -7.4024   16.0081 C   0  0  0  0  0  0  0  0  0  0  0  0
    8.7217   -7.6904   17.7999 C   0  0  0  0  0  0  0  0  0  0  0  0
    1.0501   -8.9244   16.5280 C   0  0  0  0  0  0  0  0  0  0  0  0
   10.3385   -3.5995   25.7818 C   0  0  0  0  0  0  0  0  0  0  0  0
   11.3603   -3.0456   22.2374 C   0  0  0  0  0  0  0  0  0  0  0  0
    9.4401   -2.5187   26.0846 C   0  0  0  0  0  0  0  0  0  0  0  0
    0.3165   -9.9415   15.7896 C   0  0  0  0  0  0  0  0  0  0  0  0
    7.6053   -8.3013   17.5848 C   0  0  0  0  0  0  0  0  0  0  0  0
    9.1791   -1.6492   25.0355 C   0  0  0  0  0  0  0  0  0  0  0  0
   10.7368   -2.8412   23.5206 C   0  0  0  0  0  0  0  0  0  0  0  0
   -0.5076  -10.9937   16.3985 C   0  0  0  0  0  0  0  0  0  0  0  0
   10.6217   -3.6741   21.0326 C   0  0  0  0  0  0  0  0  0  0  0  0
   -0.9469  -11.8094   14.2898 C   0  0  0  0  0  0  0  0  0  0  0  0
   10.8438   -3.8427   24.5448 F   0  0  0  0  0  0  0  0  0  0  0  0
    3.3403   -9.5154   17.5144 C   0  0  0  0  0  0  0  0  0  0  0  0
   10.7614   -3.8221   18.6682 C   0  0  0  0  0  0  0  0  0  0  0  0
   -1.0684  -11.8049   15.6338 C   0  0  0  0  0  0  0  0  0  0  0  0
    2.9816   -7.7257   15.6896 C   0  0  0  0  0  0  0  0  0  0  0  0
   10.7583   -3.4952   16.2525 C   0  0  0  0  0  0  0  0  0  0  0  0
   11.0857   -3.1777   17.6489 N   0  0  0  0  0  0  0  0  0  0  0  0
    9.9632   -5.0558   18.5085 C   0  0  0  0  0  0  0  0  0  0  0  0
    6.5866   -7.7202   16.7633 C   0  0  0  0  0  0  0  0  0  0  0  0
    8.5054   -6.4432   17.1082 N   0  0  0  0  0  0  0  0  0  0  0  0
    0.4976   -9.9891   14.4044 C   0  0  0  0  0  0  0  0  0  0  0  0
    6.9115   -5.8870   15.5243 O   0  0  0  0  0  0  0  0  0  0  0  0
    7.2653   -6.6114   16.2124 C   0  0  0  0  0  0  0  0  0  0  0  0
   11.1988   -3.5727   19.8459 N   0  0  0  0  0  0  0  0  0  0  0  0
    9.3886   -5.3494   17.2475 C   0  0  0  0  0  0  0  0  0  0  0  0
    5.1356   -7.9934   16.7070 C   0  0  0  0  0  0  0  0  0  0  0  0
    9.8331   -1.7890   23.7482 P   0  0  0  0  0  0  0  0  0  0  0  0
    9.7436   -4.5549   16.1227 C   0  0  0  0  0  0  0  0  0  0  0  0
    4.4668   -9.1324   17.4614 C   0  0  0  0  0  0  0  0  0  0  0  0
    2.4093   -8.8739   16.5769 C   0  0  0  0  0  0  0  0  0  0  0  0
   -0.2139  -10.9704   13.6641 C   0  0  0  0  0  0  0  0  0  0  0  0
  1  9  2  0
  1 18  4  0
  1 29  4  0
  2  8  4  0
  2 23  1  0
  3  7  1  0
  3 33  2  0
  4  6  4  0
  4 14  4  0
  5 10  1  0
  5 12  1  0
  5 31  1  0
  6  9  4  0
  6 31  4  0
  7 11  4  0
  7 23  1  0
  7 24  4  0
  8 22  1  0
  9 30  4  0
 10 17  4  0
 10 24  1  0
 10 30  4  0
 11 17  4  0
 11 22  2  0
 12 23  4  0
 12 27  1  0
 13 14  4  0
 13 17  4  0
 13 34  4  0
 15 32  4  0
 15 33  4  0
 16 20  4  0
 16 21  4  0
 16 27  1  0
 17 30  2  0
 18 33  4  0
 19 20  4  0
 21 26  4  0
 21 28  4  0
 22 26  1  0
 22 29  1  0
 22 30  2  0
 23 28  1  0
 24 34  4  0
 25 26  2  0
 28 31  4  0
 29 32  4  0
M  END
$$$$

 Created by Python create_sdf_string function

 34 38  0  0  0  0  0  0  0  0999 V2000
    4.2732   -7.4101   15.9307 C   0  0  0  0  0  0  0  0  0  0  0  0
    8.7210   -7.6353   17.8058 C   0  0  0  0  0  0  0  0  0  0  0  0
    1.0738   -9.0283   16.5413 C   0  0  0  0  0  0  0  0  0  0  0  0
   10.3167   -3.6222   25.8026 C   0  0  0  0  0  0  0  0  0  0  0  0
   11.3453   -3.0351   22.2410 C   0  0  0  0  0  0  0  0  0  0  0  0
    9.4623   -2.5325   26.0350 C   0  0  0  0  0  0  0  0  0  0  0  0
    0.3460   -9.9983   15.7638 C   0  0  0  0  0  0  0  0  0  0  0  0
    7.5269   -8.4249   17.6314 C   0  0  0  0  0  0  0  0  0  0  0  0
    9.2020   -1.6158   25.0042 C   0  0  0  0  0  0  0  0  0  0  0  0
   10.6508   -2.8786   23.5566 C   0  0  0  0  0  0  0  0  0  0  0  0
   -0.4976  -10.9237   16.4001 C   0  0  0  0  0  0  0  0  0  0  0  0
   10.6209   -3.6564   21.1109 C   0  0  0  0  0  0  0  0  0  0  0  0
   -0.9950  -11.8649   14.2778 C   0  0  0  0  0  0  0  0  0  0  0  0
   10.8802   -3.7938   24.5400 C   0  0  0  0  0  0  0  0  0  0  0  0
    3.2993   -9.4521   17.4337 C   0  0  0  0  0  0  0  0  0  0  0  0
   10.7257   -3.9212   18.6222 C   0  0  0  0  0  0  0  0  0  0  0  0
   -1.1325  -11.8531   15.6330 C   0  0  0  0  0  0  0  0  0  0  0  0
    2.9899   -7.7368   15.8126 C   0  0  0  0  0  0  0  0  0  0  0  0
   10.6848   -3.5122   16.3291 C   0  0  0  0  0  0  0  0  0  0  0  0
   11.1100   -3.1885   17.5900 N   0  0  0  0  0  0  0  0  0  0  0  0
    9.9451   -5.0078   18.4988 C   0  0  0  0  0  0  0  0  0  0  0  0
    6.5527   -7.7464   16.8173 C   0  0  0  0  0  0  0  0  0  0  0  0
    8.5375   -6.4416   17.0830 N   0  0  0  0  0  0  0  0  0  0  0  0
    0.4605   -9.9918   14.3667 C   0  0  0  0  0  0  0  0  0  0  0  0
    6.9376   -5.8343   15.4780 O   0  0  0  0  0  0  0  0  0  0  0  0
    7.2829   -6.5756   16.3482 C   0  0  0  0  0  0  0  0  0  0  0  0
   11.2183   -3.5318   19.8509 N   0  0  0  0  0  0  0  0  0  0  0  0
    9.4340   -5.3626   17.2687 C   0  0  0  0  0  0  0  0  0  0  0  0
    5.1449   -8.0871   16.7419 C   0  0  0  0  0  0  0  0  0  0  0  0
    9.8221   -1.7827   23.7482 C   0  0  0  0  0  0  0  0  0  0  0  0
    9.7713   -4.5757   16.1800 C   0  0  0  0  0  0  0  0  0  0  0  0
    4.5721   -9.1085   17.4838 C   0  0  0  0  0  0  0  0  0  0  0  0
    2.4479   -8.7694   16.5754 C   0  0  0  0  0  0  0  0  0  0  0  0
   -0.2087  -10.9407   13.6231 C   0  0  0  0  0  0  0  0  0  0  0  0
  1 18  4  0
  1 29  4  0
  2  8  1  0
  2 23  1  0
  3  7  1  0
  3 33  1  0
  4  6  4  0
  4 14  4  0
  5 10  1  0
  5 12  1  0
  6  9  4  0
  7 11  4  0
  7 24  4  0
  8 22  1  0
  9 30  4  0
 10 14  4  0
 10 30  4  0
 11 17  4  0
 12 27  1  0
 13 17  4  0
 13 34  4  0
 15 32  4  0
 15 33  4  0
 16 20  4  0
 16 21  4  0
 16 27  1  0
 18 33  4  0
 19 20  4  0
 19 31  4  0
 21 28  4  0
 22 26  1  0
 22 29  1  0
 23 26  1  0
 23 28  1  0
 24 34  4  0
 25 26  2  0
 28 31  4  0
 29 32  4  0
M  END
$$$$

 Created by Python create_sdf_string function

 34 56  0  0  0  0  0  0  0  0999 V2000
    4.2613   -7.4529   16.0048 C   0  0  0  0  0  0  0  0  0  0  0  0
    8.7235   -7.5922   17.7141 C   0  0  0  0  0  0  0  0  0  0  0  0
    1.1039   -9.0887   16.6039 C   0  0  0  0  0  0  0  0  0  0  0  0
   10.2670   -3.5677   25.7768 C   0  0  0  0  0  0  0  0  0  0  0  0
   11.2655   -3.0674   22.2978 C   0  0  0  0  0  0  0  0  0  0  0  0
    9.4772   -2.5696   26.0537 C   0  0  0  0  0  0  0  0  0  0  0  0
    0.3255  -10.0067   15.6809 C   0  0  0  0  0  0  0  0  0  0  0  0
    7.5043   -8.4241   17.6942 C   0  0  0  0  0  0  0  0  0  0  0  0
    9.2476   -1.5568   25.0033 C   0  0  0  0  0  0  0  0  0  0  0  0
   10.6376   -2.8421   23.5675 C   0  0  0  0  0  0  0  0  0  0  0  0
   -0.5062  -10.9570   16.3922 C   0  0  0  0  0  0  0  0  0  0  0  0
   10.5999   -3.6379   21.2026 C   0  0  0  0  0  0  0  0  0  0  0  0
   -0.9703  -11.9128   14.2977 C   0  0  0  0  0  0  0  0  0  0  0  0
   10.8085   -3.7359   24.5380 C   0  0  0  0  0  0  0  0  0  0  0  0
    3.2505   -9.4517   17.3817 C   0  0  0  0  0  0  0  0  0  0  0  0
   10.7477   -3.8851   18.6706 C   0  0  0  0  0  0  0  0  0  0  0  0
   -1.1194  -11.8694   15.5691 C   0  0  0  0  0  0  0  0  0  0  0  0
    3.0286   -7.8111   15.8836 C   0  0  0  0  0  0  0  0  0  0  0  0
   10.6210   -3.5355   16.3826 C   0  0  0  0  0  0  0  0  0  0  0  0
   11.0583   -3.2051   17.6711 C   0  0  0  0  0  0  0  0  0  0  0  0
    9.9759   -5.0014   18.5062 C   0  0  0  0  0  0  0  0  0  0  0  0
    6.6117   -7.6627   16.8677 C   0  0  0  0  0  0  0  0  0  0  0  0
    8.4999   -6.4433   17.0918 N   0  0  0  0  0  0  0  0  0  0  0  0
    0.4379  -10.0072   14.4036 C   0  0  0  0  0  0  0  0  0  0  0  0
    6.8968   -5.8803   15.5442 O   0  0  0  0  0  0  0  0  0  0  0  0
    7.2604   -6.6143   16.4124 C   0  0  0  0  0  0  0  0  0  0  0  0
   11.2136   -3.5478   19.8046 C   0  0  0  0  0  0  0  0  0  0  0  0
    9.5073   -5.3709   17.2158 C   0  0  0  0  0  0  0  0  0  0  0  0
    5.0875   -8.0666   16.8022 C   0  0  0  0  0  0  0  0  0  0  0  0
    9.8045   -1.7742   23.7867 C   0  0  0  0  0  0  0  0  0  0  0  0
    9.7789   -4.5757   16.1908 C   0  0  0  0  0  0  0  0  0  0  0  0
    4.5760   -9.1348   17.5243 C   0  0  0  0  0  0  0  0  0  0  0  0
    2.3753   -8.8047   16.5766 C   0  0  0  0  0  0  0  0  0  0  0  0
   -0.1961  -10.9540   13.5783 C   0  0  0  0  0  0  0  0  0  0  0  0
  1 18  4  0
  1 29  4  0
  2  4  4  0
  2  8  1  0
  2 23  1  0
  3  7  1  0
  3 33  1  0
  4  6  4  0
  4 14  4  0
  4 15  3  0
  5 10  1  0
  5 12  2  0
  5 24  2  0
  5 25  1  0
  5 27  2  0
  5 34  1  0
  6  9  4  0
  7 10  4  0
  7 11  4  0
  7 24  4  0
  8 22  1  0
  9 30  4  0
 10 14  4  0
 10 30  4  0
 10 31  1  0
 11 17  4  0
 12 18  2  0
 12 27  1  0
 12 28  4  0
 13 17  4  0
 13 34  4  0
 14 16  3  0
 15 19  4  0
 15 27  3  0
 15 32  4  0
 15 33  4  0
 16 20  4  0
 16 21  4  0
 16 27  1  0
 17 24  3  0
 18 27  3  0
 18 33  4  0
 19 20  4  0
 19 31  4  0
 21 28  4  0
 21 32  2  0
 22 26  1  0
 22 29  1  0
 23 26  1  0
 23 27  3  0
 23 28  1  0
 24 34  4  0
 25 26  2  0
 25 30  1  0
 28 31  4  0
 29 32  4  0
M  END
$$$$

 Created by Python create_sdf_string function

 34 38  0  0  0  0  0  0  0  0999 V2000
    4.2545   -7.4231   15.9774 C   0  0  0  0  0  0  0  0  0  0  0  0
    8.7478   -7.6195   17.7629 C   0  0  0  0  0  0  0  0  0  0  0  0
    1.0525   -9.0638   16.5723 C   0  0  0  0  0  0  0  0  0  0  0  0
   10.2706   -3.5835   25.7930 C   0  0  0  0  0  0  0  0  0  0  0  0
   11.2172   -3.0517   22.3069 C   0  0  0  0  0  0  0  0  0  0  0  0
    9.4565   -2.5017   26.0381 C   0  0  0  0  0  0  0  0  0  0  0  0
    0.3135  -10.0350   15.7493 C   0  0  0  0  0  0  0  0  0  0  0  0
    7.4850   -8.4213   17.6924 C   0  0  0  0  0  0  0  0  0  0  0  0
    9.2302   -1.5531   25.0374 C   0  0  0  0  0  0  0  0  0  0  0  0
   10.5899   -2.8594   23.5825 C   0  0  0  0  0  0  0  0  0  0  0  0
   -0.5254  -10.9631   16.3666 C   0  0  0  0  0  0  0  0  0  0  0  0
   10.6463   -3.6064   21.1680 C   0  0  0  0  0  0  0  0  0  0  0  0
   -1.0020  -11.9190   14.2381 C   0  0  0  0  0  0  0  0  0  0  0  0
   10.8488   -3.7736   24.5580 C   0  0  0  0  0  0  0  0  0  0  0  0
    3.2938   -9.4583   17.4276 C   0  0  0  0  0  0  0  0  0  0  0  0
   10.7292   -3.9372   18.6276 C   0  0  0  0  0  0  0  0  0  0  0  0
   -1.1577  -11.8968   15.6005 C   0  0  0  0  0  0  0  0  0  0  0  0
    3.0089   -7.7600   15.8820 C   0  0  0  0  0  0  0  0  0  0  0  0
   10.6072   -3.5373   16.3543 C   0  0  0  0  0  0  0  0  0  0  0  0
   11.0755   -3.1789   17.5700 C   0  0  0  0  0  0  0  0  0  0  0  0
    9.9568   -5.0310   18.4987 C   0  0  0  0  0  0  0  0  0  0  0  0
    6.5176   -7.7081   16.8852 C   0  0  0  0  0  0  0  0  0  0  0  0
    8.5185   -6.4223   17.0778 N   0  0  0  0  0  0  0  0  0  0  0  0
    0.4281  -10.0210   14.3587 C   0  0  0  0  0  0  0  0  0  0  0  0
    6.9128   -5.8315   15.5309 O   0  0  0  0  0  0  0  0  0  0  0  0
    7.2759   -6.5469   16.3984 C   0  0  0  0  0  0  0  0  0  0  0  0
   11.2519   -3.5572   19.8713 C   0  0  0  0  0  0  0  0  0  0  0  0
    9.4355   -5.3751   17.2689 C   0  0  0  0  0  0  0  0  0  0  0  0
    5.1143   -8.0954   16.7975 C   0  0  0  0  0  0  0  0  0  0  0  0
    9.8007   -1.7272   23.7688 C   0  0  0  0  0  0  0  0  0  0  0  0
    9.7705   -4.5976   16.2038 C   0  0  0  0  0  0  0  0  0  0  0  0
    4.5540   -9.1298   17.5202 C   0  0  0  0  0  0  0  0  0  0  0  0
    2.4602   -8.7873   16.6023 C   0  0  0  0  0  0  0  0  0  0  0  0
   -0.2235  -10.9665   13.5861 C   0  0  0  0  0  0  0  0  0  0  0  0
  1 18  4  0
  1 29  4  0
  2  8  1  0
  2 23  1  0
  3  7  1  0
  3 33  1  0
  4  6  4  0
  4 14  4  0
  5 10  1  0
  5 12  2  0
  6  9  4  0
  7 11  4  0
  7 24  4  0
  8 22  1  0
  9 30  4  0
 10 14  4  0
 10 30  4  0
 11 17  4  0
 12 27  1  0
 13 17  4  0
 13 34  4  0
 15 32  4  0
 15 33  4  0
 16 20  4  0
 16 21  4  0
 16 27  1  0
 18 33  4  0
 19 20  4  0
 19 31  4  0
 21 28  4  0
 22 26  1  0
 22 29  1  0
 23 26  1  0
 23 28  1  0
 24 34  4  0
 25 26  2  0
 28 31  4  0
 29 32  4  0
M  END
$$$$

 Created by Python create_sdf_string function

 34 47  0  0  0  0  0  0  0  0999 V2000
    4.2746   -7.4124   16.0598 C   0  0  0  0  0  0  0  0  0  0  0  0
    8.8269   -7.6791   17.7357 C   0  0  0  0  0  0  0  0  0  0  0  0
    1.0259   -9.0569   16.5205 C   0  0  0  0  0  0  0  0  0  0  0  0
   10.2753   -3.6808   25.8362 C   0  0  0  0  0  0  0  0  0  0  0  0
   11.2689   -3.0720   22.3820 C   0  0  0  0  0  0  0  0  0  0  0  0
    9.4479   -2.4919   25.9971 C   0  0  0  0  0  0  0  0  0  0  0  0
    0.3588   -9.9717   15.7145 C   0  0  0  0  0  0  0  0  0  0  0  0
    7.5793   -8.4079   17.5932 C   0  0  0  0  0  0  0  0  0  0  0  0
    9.1886   -1.5802   25.0279 C   0  0  0  0  0  0  0  0  0  0  0  0
   10.6056   -2.8220   23.5543 C   0  0  0  0  0  0  0  0  0  0  0  0
   -0.5257  -10.9886   16.3317 C   0  0  0  0  0  0  0  0  0  0  0  0
   10.6474   -3.5404   21.2177 C   0  0  0  0  0  0  0  0  0  0  0  0
   -0.8552  -11.9267   14.1978 C   0  0  0  0  0  0  0  0  0  0  0  0
   10.9045   -3.7870   24.5632 C   0  0  0  0  0  0  0  0  0  0  0  0
    3.3464   -9.4294   17.3793 C   0  0  0  0  0  0  0  0  0  0  0  0
   10.6629   -4.0219   18.7329 C   0  0  0  0  0  0  0  0  0  0  0  0
   -1.1817  -11.9017   15.5978 C   0  0  0  0  0  0  0  0  0  0  0  0
    2.9775   -7.7409   15.7391 C   0  0  0  0  0  0  0  0  0  0  0  0
   10.6241   -3.5846   16.4360 C   0  0  0  0  0  0  0  0  0  0  0  0
   10.9926   -3.1706   17.5745 Cl  0  0  0  0  0  0  0  0  0  0  0  0
    9.9837   -5.0110   18.4889 C   0  0  0  0  0  0  0  0  0  0  0  0
    6.5870   -7.6591   16.9225 C   0  0  0  0  0  0  0  0  0  0  0  0
    8.5298   -6.4150   17.0689 N   0  0  0  0  0  0  0  0  0  0  0  0
    0.4588  -10.0266   14.4092 C   0  0  0  0  0  0  0  0  0  0  0  0
    6.8888   -5.8044   15.5206 O   0  0  0  0  0  0  0  0  0  0  0  0
    7.3617   -6.5368   16.3397 C   0  0  0  0  0  0  0  0  0  0  0  0
   11.2232   -3.5462   19.8735 C   0  0  0  0  0  0  0  0  0  0  0  0
    9.4022   -5.4494   17.2205 C   0  0  0  0  0  0  0  0  0  0  0  0
    5.1092   -8.1152   16.8992 C   0  0  0  0  0  0  0  0  0  0  0  0
    9.6977   -1.7844   23.8573 C   0  0  0  0  0  0  0  0  0  0  0  0
    9.7698   -4.6084   16.2472 C   0  0  0  0  0  0  0  0  0  0  0  0
    4.6308   -9.2003   17.5425 C   0  0  0  0  0  0  0  0  0  0  0  0
    2.4162   -8.8730   16.5356 C   0  0  0  0  0  0  0  0  0  0  0  0
   -0.2106  -10.9546   13.5660 C   0  0  0  0  0  0  0  0  0  0  0  0
  1 18  4  0
  1 29  4  0
  2  8  1  0
  2 23  1  0
  3  7  1  0
  3 18  1  0
  3 20  3  0
  3 33  1  0
  4  6  4  0
  4 14  4  0
  5 10  1  0
  5 12  2  0
  6  9  4  0
  7 11  4  0
  7 24  4  0
  8 22  1  0
  9 30  4  0
 10 30  4  0
 11 17  4  0
 12 26  4  0
 12 27  1  0
 13 17  4  0
 13 32  3  0
 13 34  4  0
 14 25  2  0
 14 26  3  0
 15 32  4  0
 15 33  4  0
 16 20  4  0
 16 21  4  0
 16 27  1  0
 17 33  4  0
 17 34  4  0
 18 33  4  0
 19 20  4  0
 19 31  4  0
 21 28  4  0
 22 26  1  0
 22 29  1  0
 23 24  3  0
 23 26  1  0
 23 28  1  0
 24 34  4  0
 25 26  2  0
 28 31  4  0
 28 34  2  0
 29 32  4  0
M  END
$$$$

 Created by Python create_sdf_string function

 34 38  0  0  0  0  0  0  0  0999 V2000
    4.2712   -7.3903   16.0051 C   0  0  0  0  0  0  0  0  0  0  0  0
    8.7990   -7.6721   17.7409 C   0  0  0  0  0  0  0  0  0  0  0  0
    1.0751   -9.0897   16.5225 C   0  0  0  0  0  0  0  0  0  0  0  0
   10.2625   -3.6286   25.8620 C   0  0  0  0  0  0  0  0  0  0  0  0
   11.2129   -3.0435   22.3467 C   0  0  0  0  0  0  0  0  0  0  0  0
    9.4371   -2.5194   26.0528 C   0  0  0  0  0  0  0  0  0  0  0  0
    0.3440  -10.0424   15.7243 C   0  0  0  0  0  0  0  0  0  0  0  0
    7.5196   -8.4492   17.6139 C   0  0  0  0  0  0  0  0  0  0  0  0
    9.1811   -1.5950   25.0582 C   0  0  0  0  0  0  0  0  0  0  0  0
   10.5746   -2.8673   23.6190 C   0  0  0  0  0  0  0  0  0  0  0  0
   -0.5306  -10.9615   16.3291 C   0  0  0  0  0  0  0  0  0  0  0  0
   10.6691   -3.5385   21.1742 C   0  0  0  0  0  0  0  0  0  0  0  0
   -0.9553  -11.9375   14.2111 C   0  0  0  0  0  0  0  0  0  0  0  0
   10.8848   -3.7930   24.6097 C   0  0  0  0  0  0  0  0  0  0  0  0
    3.3289   -9.4738   17.3965 C   0  0  0  0  0  0  0  0  0  0  0  0
   10.6931   -3.9646   18.6365 C   0  0  0  0  0  0  0  0  0  0  0  0
   -1.1631  -11.9087   15.5681 C   0  0  0  0  0  0  0  0  0  0  0  0
    3.0142   -7.7461   15.8363 C   0  0  0  0  0  0  0  0  0  0  0  0
   10.5896   -3.5554   16.3920 C   0  0  0  0  0  0  0  0  0  0  0  0
   11.0549   -3.1734   17.6075 N   0  0  0  0  0  0  0  0  0  0  0  0
    9.9316   -5.0748   18.5002 C   0  0  0  0  0  0  0  0  0  0  0  0
    6.5166   -7.6722   16.9069 C   0  0  0  0  0  0  0  0  0  0  0  0
    8.5347   -6.4481   17.0723 N   0  0  0  0  0  0  0  0  0  0  0  0
    0.4386  -10.0289   14.3398 C   0  0  0  0  0  0  0  0  0  0  0  0
    6.9143   -5.7995   15.5293 O   0  0  0  0  0  0  0  0  0  0  0  0
    7.3098   -6.5201   16.3991 C   0  0  0  0  0  0  0  0  0  0  0  0
   11.2155   -3.5753   19.8853 C   0  0  0  0  0  0  0  0  0  0  0  0
    9.4081   -5.4190   17.2671 C   0  0  0  0  0  0  0  0  0  0  0  0
    5.1140   -8.0940   16.8242 C   0  0  0  0  0  0  0  0  0  0  0  0
    9.7355   -1.7632   23.7958 C   0  0  0  0  0  0  0  0  0  0  0  0
    9.7510   -4.6280   16.2243 C   0  0  0  0  0  0  0  0  0  0  0  0
    4.5786   -9.1523   17.5224 C   0  0  0  0  0  0  0  0  0  0  0  0
    2.4798   -8.8004   16.5702 C   0  0  0  0  0  0  0  0  0  0  0  0
   -0.2081  -10.9726   13.5749 C   0  0  0  0  0  0  0  0  0  0  0  0
  1 18  4  0
  1 29  4  0
  2  8  1  0
  2 23  1  0
  3  7  1  0
  3 33  1  0
  4  6  4  0
  4 14  4  0
  5 10  1  0
  5 12  2  0
  6  9  4  0
  7 11  4  0
  7 24  4  0
  8 22  1  0
  9 30  4  0
 10 14  4  0
 10 30  4  0
 11 17  4  0
 12 27  1  0
 13 17  4  0
 13 34  4  0
 15 32  4  0
 15 33  4  0
 16 20  4  0
 16 21  4  0
 16 27  1  0
 18 33  4  0
 19 20  4  0
 19 31  4  0
 21 28  4  0
 22 26  1  0
 22 29  1  0
 23 26  1  0
 23 28  1  0
 24 34  4  0
 25 26  2  0
 28 31  4  0
 29 32  4  0
M  END
$$$$

 Created by Python create_sdf_string function

 34 39  0  0  0  0  0  0  0  0999 V2000
    4.2267   -7.3774   16.0005 C   0  0  0  0  0  0  0  0  0  0  0  0
    8.7793   -7.6399   17.7014 C   0  0  0  0  0  0  0  0  0  0  0  0
    1.0972   -9.0994   16.4999 C   0  0  0  0  0  0  0  0  0  0  0  0
   10.3828   -3.5344   25.8510 C   0  0  0  0  0  0  0  0  0  0  0  0
   11.1552   -3.0713   22.3301 C   0  0  0  0  0  0  0  0  0  0  0  0
    9.3779   -2.5166   26.0157 C   0  0  0  0  0  0  0  0  0  0  0  0
    0.3283  -10.0556   15.7057 C   0  0  0  0  0  0  0  0  0  0  0  0
    7.5210   -8.5290   17.5945 C   0  0  0  0  0  0  0  0  0  0  0  0
    9.1681   -1.5746   25.0924 C   0  0  0  0  0  0  0  0  0  0  0  0
   -0.4856  -10.8803   16.3110 C   0  0  0  0  0  0  0  0  0  0  0  0
   10.6640   -3.5956   21.1867 C   0  0  0  0  0  0  0  0  0  0  0  0
   -0.9696  -11.8746   14.2373 C   0  0  0  0  0  0  0  0  0  0  0  0
   10.8810   -3.7959   24.6000 C   0  0  0  0  0  0  0  0  0  0  0  0
    3.3332   -9.4244   17.4155 C   0  0  0  0  0  0  0  0  0  0  0  0
   10.7621   -3.9651   18.6717 C   0  0  0  0  0  0  0  0  0  0  0  0
   -1.1772  -11.9486   15.5525 C   0  0  0  0  0  0  0  0  0  0  0  0
    3.0347   -7.7085   15.8629 C   0  0  0  0  0  0  0  0  0  0  0  0
   10.6283   -3.5107   16.3470 C   0  0  0  0  0  0  0  0  0  0  0  0
   11.0529   -3.1591   17.6527 N   0  0  0  0  0  0  0  0  0  0  0  0
    9.9507   -5.0017   18.5492 C   0  0  0  0  0  0  0  0  0  0  0  0
    6.5380   -7.6692   16.9282 C   0  0  0  0  0  0  0  0  0  0  0  0
    8.5429   -6.4679   17.0257 N   0  0  0  0  0  0  0  0  0  0  0  0
    0.4391   -9.9900   14.3654 C   0  0  0  0  0  0  0  0  0  0  0  0
    6.9925   -5.8256   15.5460 O   0  0  0  0  0  0  0  0  0  0  0  0
    7.2760   -6.4746   16.3963 C   0  0  0  0  0  0  0  0  0  0  0  0
    9.4043   -5.4062   17.2233 C   0  0  0  0  0  0  0  0  0  0  0  0
    5.1023   -8.1295   16.7304 C   0  0  0  0  0  0  0  0  0  0  0  0
    9.7321   -1.8704   23.8004 C   0  0  0  0  0  0  0  0  0  0  0  0
    4.5621   -9.0651   17.4791 C   0  0  0  0  0  0  0  0  0  0  0  0
    2.5222   -8.8076   16.6252 C   0  0  0  0  0  0  0  0  0  0  0  0
   -0.1152  -11.0154   13.5625 C   0  0  0  0  0  0  0  0  0  0  0  0
   10.5632   -2.8124   23.6421 He  0  0  0  0  0  0  0  0  0  0  0  0
   11.2978   -3.6646   19.8378 He  0  0  0  0  0  0  0  0  0  0  0  0
    9.7771   -4.5945   16.2416 He  0  0  0  0  0  0  0  0  0  0  0  0
  1 17  4  0
  1 27  4  0
  1 29  4  0
  2  8  1  0
  2 22  1  0
  3  7  1  0
  3 30  1  0
  4  6  4  0
  4 13  4  0
  4 21  4  0
  5 11  2  0
  6  9  4  0
  6 20  3  0
  7 10  4  0
  7 23  4  0
  7 27  2  0
  8 21  1  0
  8 25  2  0
  9 28  4  0
 10 16  4  0
 11 25  1  0
 12 16  4  0
 12 31  4  0
 14 29  4  0
 14 30  4  0
 15 19  4  0
 15 20  4  0
 17 30  4  0
 18 19  4  0
 18 25  3  0
 20 24  1  0
 20 26  4  0
 21 25  1  0
 21 27  1  0
 22 25  1  0
 22 26  1  0
 23 31  4  0
 24 25  2  0
 27 29  4  0
M  END
$$$$

 Created by Python create_sdf_string function

 34 38  0  0  0  0  0  0  0  0999 V2000
    4.2736   -7.3878   15.9901 C   0  0  0  0  0  0  0  0  0  0  0  0
    8.7788   -7.6626   17.7320 C   0  0  0  0  0  0  0  0  0  0  0  0
    1.0854   -9.0931   16.5191 C   0  0  0  0  0  0  0  0  0  0  0  0
   10.3322   -3.5467   25.8792 C   0  0  0  0  0  0  0  0  0  0  0  0
   11.1384   -3.0751   22.3343 C   0  0  0  0  0  0  0  0  0  0  0  0
    9.4371   -2.5161   26.0594 C   0  0  0  0  0  0  0  0  0  0  0  0
    0.3206  -10.0482   15.7011 C   0  0  0  0  0  0  0  0  0  0  0  0
    7.5308   -8.4929   17.5929 C   0  0  0  0  0  0  0  0  0  0  0  0
    9.1602   -1.5945   25.0562 C   0  0  0  0  0  0  0  0  0  0  0  0
   10.5491   -2.8794   23.6172 C   0  0  0  0  0  0  0  0  0  0  0  0
   -0.5346  -10.9429   16.3051 C   0  0  0  0  0  0  0  0  0  0  0  0
   10.6934   -3.5983   21.1297 C   0  0  0  0  0  0  0  0  0  0  0  0
   -0.9812  -11.9101   14.1874 C   0  0  0  0  0  0  0  0  0  0  0  0
   10.8931   -3.7667   24.6281 C   0  0  0  0  0  0  0  0  0  0  0  0
    3.3201   -9.4304   17.4102 C   0  0  0  0  0  0  0  0  0  0  0  0
   10.7214   -3.9755   18.6330 C   0  0  0  0  0  0  0  0  0  0  0  0
   -1.1746  -11.9056   15.5579 C   0  0  0  0  0  0  0  0  0  0  0  0
    3.0031   -7.7107   15.8841 C   0  0  0  0  0  0  0  0  0  0  0  0
   10.6112   -3.5179   16.3743 C   0  0  0  0  0  0  0  0  0  0  0  0
   11.0667   -3.2049   17.6071 N   0  0  0  0  0  0  0  0  0  0  0  0
    9.9390   -5.0594   18.5153 C   0  0  0  0  0  0  0  0  0  0  0  0
    6.5092   -7.6666   16.8952 C   0  0  0  0  0  0  0  0  0  0  0  0
    8.5447   -6.4279   17.0782 N   0  0  0  0  0  0  0  0  0  0  0  0
    0.4593  -10.0308   14.3241 C   0  0  0  0  0  0  0  0  0  0  0  0
    6.9714   -5.7733   15.5243 O   0  0  0  0  0  0  0  0  0  0  0  0
    7.3026   -6.5095   16.3969 C   0  0  0  0  0  0  0  0  0  0  0  0
   11.2362   -3.6338   19.8719 N   0  0  0  0  0  0  0  0  0  0  0  0
    9.4219   -5.3829   17.2821 C   0  0  0  0  0  0  0  0  0  0  0  0
    5.1107   -8.0706   16.7893 C   0  0  0  0  0  0  0  0  0  0  0  0
    9.7156   -1.7841   23.7866 C   0  0  0  0  0  0  0  0  0  0  0  0
    9.7574   -4.5953   16.2180 C   0  0  0  0  0  0  0  0  0  0  0  0
    4.5823   -9.0932   17.4804 C   0  0  0  0  0  0  0  0  0  0  0  0
    2.5006   -8.7543   16.5979 C   0  0  0  0  0  0  0  0  0  0  0  0
   -0.1659  -10.9991   13.5474 C   0  0  0  0  0  0  0  0  0  0  0  0
  1 18  4  0
  1 29  4  0
  2  8  1  0
  2 23  1  0
  3  7  1  0
  3 33  1  0
  4  6  4  0
  4 14  4  0
  5 10  1  0
  5 12  2  0
  6  9  4  0
  7 11  4  0
  7 24  4  0
  8 22  1  0
  9 30  4  0
 10 14  4  0
 10 30  4  0
 11 17  4  0
 12 27  1  0
 13 17  4  0
 13 34  4  0
 15 32  4  0
 15 33  4  0
 16 20  4  0
 16 21  4  0
 16 27  1  0
 18 33  4  0
 19 20  4  0
 19 31  4  0
 21 28  4  0
 22 26  1  0
 22 29  1  0
 23 26  1  0
 23 28  1  0
 24 34  4  0
 25 26  2  0
 28 31  4  0
 29 32  4  0
M  END
$$$$

 Created by Python create_sdf_string function

 34 38  0  0  0  0  0  0  0  0999 V2000
    4.2735   -7.3880   15.9890 C   0  0  0  0  0  0  0  0  0  0  0  0
    8.7537   -7.6862   17.6963 C   0  0  0  0  0  0  0  0  0  0  0  0
   10.3866   -3.5468   25.9003 C   0  0  0  0  0  0  0  0  0  0  0  0
   11.0817   -3.0124   22.3174 C   0  0  0  0  0  0  0  0  0  0  0  0
    9.4739   -2.4791   26.0670 C   0  0  0  0  0  0  0  0  0  0  0  0
    0.3284  -10.1439   15.6901 C   0  0  0  0  0  0  0  0  0  0  0  0
    7.5644   -8.5177   17.6233 C   0  0  0  0  0  0  0  0  0  0  0  0
    9.1161   -1.5324   25.0713 C   0  0  0  0  0  0  0  0  0  0  0  0
   10.5940   -2.8838   23.7058 C   0  0  0  0  0  0  0  0  0  0  0  0
   -0.4715  -10.9282   16.2933 C   0  0  0  0  0  0  0  0  0  0  0  0
   10.6755   -3.6152   21.1117 C   0  0  0  0  0  0  0  0  0  0  0  0
   -0.9181  -11.9248   14.2481 C   0  0  0  0  0  0  0  0  0  0  0  0
   10.9019   -3.8190   24.6698 C   0  0  0  0  0  0  0  0  0  0  0  0
    3.3421   -9.3366   17.4481 C   0  0  0  0  0  0  0  0  0  0  0  0
   10.6779   -3.9291   18.6412 C   0  0  0  0  0  0  0  0  0  0  0  0
   -1.1980  -11.9113   15.5032 C   0  0  0  0  0  0  0  0  0  0  0  0
    3.0644   -7.6778   15.9189 C   0  0  0  0  0  0  0  0  0  0  0  0
   10.6315   -3.5490   16.3990 C   0  0  0  0  0  0  0  0  0  0  0  0
   11.0643   -3.2694   17.5949 N   0  0  0  0  0  0  0  0  0  0  0  0
    9.9459   -5.0941   18.5367 C   0  0  0  0  0  0  0  0  0  0  0  0
    6.4947   -7.6661   16.9161 C   0  0  0  0  0  0  0  0  0  0  0  0
    8.4878   -6.4385   17.0266 N   0  0  0  0  0  0  0  0  0  0  0  0
    0.3726  -10.0278   14.3573 C   0  0  0  0  0  0  0  0  0  0  0  0
    7.0143   -5.7539   15.4570 O   0  0  0  0  0  0  0  0  0  0  0  0
    7.3727   -6.4461   16.3765 C   0  0  0  0  0  0  0  0  0  0  0  0
   11.2235   -3.6061   19.8996 N   0  0  0  0  0  0  0  0  0  0  0  0
    9.4324   -5.3220   17.2937 C   0  0  0  0  0  0  0  0  0  0  0  0
    5.1096   -8.0699   16.7639 C   0  0  0  0  0  0  0  0  0  0  0  0
    9.6653   -1.7926   23.8423 C   0  0  0  0  0  0  0  0  0  0  0  0
    9.8156   -4.5582   16.2106 C   0  0  0  0  0  0  0  0  0  0  0  0
    4.5470   -9.0960   17.5240 C   0  0  0  0  0  0  0  0  0  0  0  0
    2.4491   -8.7909   16.5742 C   0  0  0  0  0  0  0  0  0  0  0  0
   -0.1430  -10.9707   13.5724 C   0  0  0  0  0  0  0  0  0  0  0  0
    1.0823   -9.0534   16.5155 He  0  0  0  0  0  0  0  0  0  0  0  0
  1 17  4  0
  1 28  4  0
  2  7  1  0
  2 22  1  0
  3  5  4  0
  3 13  4  0
  4  9  1  0
  4 11  2  0
  5  8  4  0
  5 18  3  0
  6 10  4  0
  6 23  4  0
  7 21  1  0
  8 29  4  0
  9 13  4  0
  9 29  4  0
 10 16  4  0
 11 26  1  0
 12 16  4  0
 12 33  4  0
 14 31  4  0
 14 32  4  0
 15 19  4  0
 15 20  4  0
 15 26  1  0
 17 32  4  0
 18 19  4  0
 18 30  4  0
 20 27  4  0
 21 25  1  0
 21 28  1  0
 22 25  1  0
 22 27  1  0
 23 33  4  0
 24 25  2  0
 27 30  4  0
 28 31  4  0
 29 31  4  0
M  END
$$$$

 Created by Python create_sdf_string function

 34 38  0  0  0  0  0  0  0  0999 V2000
    4.2723   -7.3634   15.9784 C   0  0  0  0  0  0  0  0  0  0  0  0
    8.7720   -7.6643   17.7326 C   0  0  0  0  0  0  0  0  0  0  0  0
    1.0964   -9.1108   16.4896 C   0  0  0  0  0  0  0  0  0  0  0  0
   10.3554   -3.5359   25.9273 C   0  0  0  0  0  0  0  0  0  0  0  0
   11.0674   -3.0713   22.2907 C   0  0  0  0  0  0  0  0  0  0  0  0
    9.4773   -2.4769   26.1077 C   0  0  0  0  0  0  0  0  0  0  0  0
    0.3313  -10.0682   15.7022 C   0  0  0  0  0  0  0  0  0  0  0  0
    7.5186   -8.4837   17.6002 C   0  0  0  0  0  0  0  0  0  0  0  0
    9.1367   -1.5716   25.0951 C   0  0  0  0  0  0  0  0  0  0  0  0
   10.5445   -2.8751   23.6552 C   0  0  0  0  0  0  0  0  0  0  0  0
   -0.5252  -10.9715   16.3061 C   0  0  0  0  0  0  0  0  0  0  0  0
   10.6882   -3.6241   21.0816 C   0  0  0  0  0  0  0  0  0  0  0  0
   -0.9591  -11.9310   14.1874 C   0  0  0  0  0  0  0  0  0  0  0  0
   10.8952   -3.7636   24.6650 C   0  0  0  0  0  0  0  0  0  0  0  0
    3.2924   -9.3924   17.4327 C   0  0  0  0  0  0  0  0  0  0  0  0
   10.7083   -3.9633   18.6539 C   0  0  0  0  0  0  0  0  0  0  0  0
   -1.1832  -11.9083   15.5471 C   0  0  0  0  0  0  0  0  0  0  0  0
    3.0024   -7.6980   15.8999 C   0  0  0  0  0  0  0  0  0  0  0  0
   10.6424   -3.5396   16.3969 C   0  0  0  0  0  0  0  0  0  0  0  0
   11.0835   -3.2402   17.6362 N   0  0  0  0  0  0  0  0  0  0  0  0
    9.9344   -5.0547   18.5019 C   0  0  0  0  0  0  0  0  0  0  0  0
    6.4961   -7.6504   16.8806 C   0  0  0  0  0  0  0  0  0  0  0  0
    8.5338   -6.4143   17.0895 N   0  0  0  0  0  0  0  0  0  0  0  0
    0.4200  -10.0328   14.3419 C   0  0  0  0  0  0  0  0  0  0  0  0
    7.0064   -5.7622   15.4856 O   0  0  0  0  0  0  0  0  0  0  0  0
    7.3306   -6.4912   16.3840 C   0  0  0  0  0  0  0  0  0  0  0  0
   11.1669   -3.6051   19.8801 N   0  0  0  0  0  0  0  0  0  0  0  0
    9.4244   -5.3624   17.2715 C   0  0  0  0  0  0  0  0  0  0  0  0
    5.0926   -8.0714   16.8036 C   0  0  0  0  0  0  0  0  0  0  0  0
    9.6899   -1.7854   23.8201 C   0  0  0  0  0  0  0  0  0  0  0  0
    9.7784   -4.5776   16.2112 C   0  0  0  0  0  0  0  0  0  0  0  0
    4.5614   -9.0940   17.5325 C   0  0  0  0  0  0  0  0  0  0  0  0
    2.4699   -8.7451   16.5893 C   0  0  0  0  0  0  0  0  0  0  0  0
   -0.1809  -10.9805   13.5521 C   0  0  0  0  0  0  0  0  0  0  0  0
  1 18  4  0
  1 29  4  0
  2  8  1  0
  2 23  1  0
  3  7  1  0
  3 33  1  0
  4  6  4  0
  4 14  4  0
  5 10  1  0
  5 12  2  0
  6  9  4  0
  7 11  4  0
  7 24  4  0
  8 22  1  0
  9 30  4  0
 10 14  4  0
 10 30  4  0
 11 17  4  0
 12 27  1  0
 13 17  4  0
 13 34  4  0
 15 32  4  0
 15 33  4  0
 16 20  4  0
 16 21  4  0
 16 27  1  0
 18 33  4  0
 19 20  4  0
 19 31  4  0
 21 28  4  0
 22 26  1  0
 22 29  1  0
 23 26  1  0
 23 28  1  0
 24 34  4  0
 25 26  2  0
 28 31  4  0
 29 32  4  0
M  END
$$$$

 Created by Python create_sdf_string function

 34 41  0  0  0  0  0  0  0  0999 V2000
    4.2610   -7.3592   16.0087 C   0  0  0  0  0  0  0  0  0  0  0  0
    8.7396   -7.7151   17.7039 C   0  0  0  0  0  0  0  0  0  0  0  0
    1.0759   -9.1033   16.4664 C   0  0  0  0  0  0  0  0  0  0  0  0
   10.4152   -3.5638   25.9256 C   0  0  0  0  0  0  0  0  0  0  0  0
   11.0729   -3.0732   22.2572 C   0  0  0  0  0  0  0  0  0  0  0  0
    9.5353   -2.4684   26.1010 C   0  0  0  0  0  0  0  0  0  0  0  0
    0.3534  -10.0706   15.7120 C   0  0  0  0  0  0  0  0  0  0  0  0
    7.5143   -8.4903   17.6006 C   0  0  0  0  0  0  0  0  0  0  0  0
    9.1759   -1.5300   25.0636 C   0  0  0  0  0  0  0  0  0  0  0  0
   10.5177   -2.8797   23.6309 C   0  0  0  0  0  0  0  0  0  0  0  0
   -0.5386  -10.9729   16.2776 C   0  0  0  0  0  0  0  0  0  0  0  0
   10.6788   -3.5994   21.0733 C   0  0  0  0  0  0  0  0  0  0  0  0
   -0.9197  -11.9214   14.2132 C   0  0  0  0  0  0  0  0  0  0  0  0
   10.9155   -3.7894   24.7058 C   0  0  0  0  0  0  0  0  0  0  0  0
    3.2903   -9.4111   17.4264 C   0  0  0  0  0  0  0  0  0  0  0  0
   10.7184   -3.9942   18.6473 C   0  0  0  0  0  0  0  0  0  0  0  0
   -1.1903  -11.9454   15.5531 C   0  0  0  0  0  0  0  0  0  0  0  0
    3.0311   -7.6612   15.9486 C   0  0  0  0  0  0  0  0  0  0  0  0
   10.6471   -3.5381   16.4345 C   0  0  0  0  0  0  0  0  0  0  0  0
   11.0490   -3.2333   17.7051 N   0  0  0  0  0  0  0  0  0  0  0  0
    9.9179   -5.0106   18.4471 C   0  0  0  0  0  0  0  0  0  0  0  0
    6.5099   -7.6785   16.9352 C   0  0  0  0  0  0  0  0  0  0  0  0
    8.5365   -6.4396   17.0937 N   0  0  0  0  0  0  0  0  0  0  0  0
    0.4548   -9.9407   14.3357 C   0  0  0  0  0  0  0  0  0  0  0  0
    6.9729   -5.8219   15.4363 F   0  0  0  0  0  0  0  0  0  0  0  0
    7.3363   -6.4666   16.3593 C   0  0  0  0  0  0  0  0  0  0  0  0
   11.1861   -3.6124   19.8779 N   0  0  0  0  0  0  0  0  0  0  0  0
    9.4314   -5.3941   17.2310 C   0  0  0  0  0  0  0  0  0  0  0  0
    5.0626   -8.0988   16.8683 C   0  0  0  0  0  0  0  0  0  0  0  0
    9.7010   -1.7655   23.7966 C   0  0  0  0  0  0  0  0  0  0  0  0
    9.7065   -4.6126   16.1931 C   0  0  0  0  0  0  0  0  0  0  0  0
    4.6447   -9.1176   17.5661 C   0  0  0  0  0  0  0  0  0  0  0  0
    2.4100   -8.7230   16.6218 C   0  0  0  0  0  0  0  0  0  0  0  0
   -0.1766  -10.9315   13.5799 C   0  0  0  0  0  0  0  0  0  0  0  0
  1 18  4  0
  1 29  4  0
  2  8  1  0
  2 23  1  0
  3  7  1  0
  3 33  1  0
  4  6  4  0
  4 14  4  0
  5 10  1  0
  5 12  2  0
  6  9  4  0
  7 11  4  0
  7 22  4  0
  7 24  4  0
  8 22  1  0
  9 30  4  0
 10 14  4  0
 10 30  4  0
 11 17  4  0
 11 24  3  0
 12 27  1  0
 13 17  4  0
 13 34  4  0
 15 32  4  0
 15 33  4  0
 16 20  4  0
 16 21  4  0
 16 27  1  0
 18 33  4  0
 19 20  4  0
 19 31  4  0
 21 28  4  0
 21 32  3  0
 22 26  1  0
 22 29  1  0
 23 26  1  0
 23 28  1  0
 24 34  4  0
 25 26  2  0
 28 31  4  0
 29 32  4  0
M  END
$$$$

 Created by Python create_sdf_string function

 34 38  0  0  0  0  0  0  0  0999 V2000
    4.2665   -7.3362   16.0250 C   0  0  0  0  0  0  0  0  0  0  0  0
    8.7581   -7.6944   17.7290 C   0  0  0  0  0  0  0  0  0  0  0  0
    1.0867   -9.0989   16.5063 C   0  0  0  0  0  0  0  0  0  0  0  0
   10.3968   -3.5422   25.9331 C   0  0  0  0  0  0  0  0  0  0  0  0
   11.0539   -3.1009   22.2557 C   0  0  0  0  0  0  0  0  0  0  0  0
    9.5294   -2.4566   26.1243 C   0  0  0  0  0  0  0  0  0  0  0  0
    0.3219  -10.0593   15.7007 C   0  0  0  0  0  0  0  0  0  0  0  0
    7.5028   -8.4707   17.6007 C   0  0  0  0  0  0  0  0  0  0  0  0
    9.1913   -1.5574   25.0895 C   0  0  0  0  0  0  0  0  0  0  0  0
   10.5334   -2.8944   23.6194 C   0  0  0  0  0  0  0  0  0  0  0  0
   -0.5434  -10.9794   16.2754 C   0  0  0  0  0  0  0  0  0  0  0  0
   10.6868   -3.6090   21.0530 C   0  0  0  0  0  0  0  0  0  0  0  0
   -0.9594  -11.9289   14.1819 C   0  0  0  0  0  0  0  0  0  0  0  0
   10.9122   -3.7611   24.6536 C   0  0  0  0  0  0  0  0  0  0  0  0
    3.3022   -9.4108   17.4383 C   0  0  0  0  0  0  0  0  0  0  0  0
   10.6913   -3.9932   18.6536 C   0  0  0  0  0  0  0  0  0  0  0  0
   -1.1786  -11.9305   15.5481 C   0  0  0  0  0  0  0  0  0  0  0  0
    3.0073   -7.6608   15.9408 C   0  0  0  0  0  0  0  0  0  0  0  0
   10.6174   -3.5482   16.4071 C   0  0  0  0  0  0  0  0  0  0  0  0
   11.0612   -3.2460   17.6468 N   0  0  0  0  0  0  0  0  0  0  0  0
    9.9144   -5.0641   18.4765 C   0  0  0  0  0  0  0  0  0  0  0  0
    6.4968   -7.6446   16.8946 C   0  0  0  0  0  0  0  0  0  0  0  0
    8.5321   -6.4344   17.0940 N   0  0  0  0  0  0  0  0  0  0  0  0
    0.4312   -9.9930   14.3322 C   0  0  0  0  0  0  0  0  0  0  0  0
    6.9992   -5.8327   15.4943 O   0  0  0  0  0  0  0  0  0  0  0  0
    7.3302   -6.4973   16.3791 C   0  0  0  0  0  0  0  0  0  0  0  0
   11.1527   -3.6243   19.8776 N   0  0  0  0  0  0  0  0  0  0  0  0
    9.4085   -5.3809   17.2652 C   0  0  0  0  0  0  0  0  0  0  0  0
    5.0794   -8.0711   16.8370 C   0  0  0  0  0  0  0  0  0  0  0  0
    9.7124   -1.7790   23.7984 C   0  0  0  0  0  0  0  0  0  0  0  0
    9.7424   -4.5792   16.2012 C   0  0  0  0  0  0  0  0  0  0  0  0
    4.5686   -9.1168   17.5529 C   0  0  0  0  0  0  0  0  0  0  0  0
    2.4615   -8.7305   16.6155 C   0  0  0  0  0  0  0  0  0  0  0  0
   -0.2004  -10.9450   13.5672 C   0  0  0  0  0  0  0  0  0  0  0  0
  1 18  4  0
  1 29  4  0
  2  8  1  0
  2 23  1  0
  3  7  1  0
  3 33  1  0
  4  6  4  0
  4 14  4  0
  5 10  1  0
  5 12  2  0
  6  9  4  0
  7 11  4  0
  7 24  4  0
  8 22  1  0
  9 30  4  0
 10 14  4  0
 10 30  4  0
 11 17  4  0
 12 27  1  0
 13 17  4  0
 13 34  4  0
 15 32  4  0
 15 33  4  0
 16 20  4  0
 16 21  4  0
 16 27  1  0
 18 33  4  0
 19 20  4  0
 19 31  4  0
 21 28  4  0
 22 26  1  0
 22 29  1  0
 23 26  1  0
 23 28  1  0
 24 34  4  0
 25 26  2  0
 28 31  4  0
 29 32  4  0
M  END
$$$$

 Created by Python create_sdf_string function

 34 39  0  0  0  0  0  0  0  0999 V2000
    4.2289   -7.3255   16.0034 C   0  0  0  0  0  0  0  0  0  0  0  0
    8.7637   -7.6904   17.7455 C   0  0  0  0  0  0  0  0  0  0  0  0
    1.1235   -9.0908   16.4973 C   0  0  0  0  0  0  0  0  0  0  0  0
   10.4265   -3.4977   25.9287 C   0  0  0  0  0  0  0  0  0  0  0  0
   11.0498   -3.1088   22.2044 C   0  0  0  0  0  0  0  0  0  0  0  0
    9.5006   -2.4552   26.1467 C   0  0  0  0  0  0  0  0  0  0  0  0
    0.3138  -10.0141   15.7174 C   0  0  0  0  0  0  0  0  0  0  0  0
    7.4956   -8.5107   17.6038 C   0  0  0  0  0  0  0  0  0  0  0  0
    9.2097   -1.6135   25.1051 C   0  0  0  0  0  0  0  0  0  0  0  0
   10.5307   -2.8912   23.6377 C   0  0  0  0  0  0  0  0  0  0  0  0
   -0.5660  -10.9540   16.2306 C   0  0  0  0  0  0  0  0  0  0  0  0
   10.6426   -3.5927   21.0464 C   0  0  0  0  0  0  0  0  0  0  0  0
   -0.9599  -11.9069   14.2326 C   0  0  0  0  0  0  0  0  0  0  0  0
   10.9232   -3.7477   24.6791 C   0  0  0  0  0  0  0  0  0  0  0  0
    3.2607   -9.3764   17.4333 C   0  0  0  0  0  0  0  0  0  0  0  0
   10.6749   -4.0013   18.6409 C   0  0  0  0  0  0  0  0  0  0  0  0
   -1.1853  -11.9417   15.5807 C   0  0  0  0  0  0  0  0  0  0  0  0
    2.9777   -7.6473   15.9537 C   0  0  0  0  0  0  0  0  0  0  0  0
   10.6182   -3.5660   16.4227 C   0  0  0  0  0  0  0  0  0  0  0  0
   11.0778   -3.2511   17.6257 N   0  0  0  0  0  0  0  0  0  0  0  0
    9.9046   -5.0773   18.4713 C   0  0  0  0  0  0  0  0  0  0  0  0
    6.4571   -7.6602   16.9067 C   0  0  0  0  0  0  0  0  0  0  0  0
    8.5047   -6.4302   17.1133 N   0  0  0  0  0  0  0  0  0  0  0  0
    0.4373  -10.0084   14.3348 C   0  0  0  0  0  0  0  0  0  0  0  0
    6.9877   -5.8351   15.4974 O   0  0  0  0  0  0  0  0  0  0  0  0
    7.3116   -6.5211   16.3731 C   0  0  0  0  0  0  0  0  0  0  0  0
   11.1801   -3.5708   19.8495 N   0  0  0  0  0  0  0  0  0  0  0  0
    9.4046   -5.3529   17.1799 C   0  0  0  0  0  0  0  0  0  0  0  0
    5.0803   -8.0668   16.8742 C   0  0  0  0  0  0  0  0  0  0  0  0
    9.6863   -1.7665   23.7962 C   0  0  0  0  0  0  0  0  0  0  0  0
    9.7713   -4.6278   16.1212 C   0  0  0  0  0  0  0  0  0  0  0  0
    4.5331   -9.1301   17.5775 N   0  0  0  0  0  0  0  0  0  0  0  0
    2.4917   -8.7528   16.5827 C   0  0  0  0  0  0  0  0  0  0  0  0
   -0.1680  -10.9244   13.5940 C   0  0  0  0  0  0  0  0  0  0  0  0
  1 18  4  0
  1 29  4  0
  2  8  1  0
  2 16  2  0
  2 23  1  0
  3  7  1  0
  3 33  1  0
  4  6  4  0
  4 14  4  0
  5 10  1  0
  5 12  2  0
  6  9  4  0
  7 11  4  0
  7 24  4  0
  8 22  1  0
  9 30  4  0
 10 14  4  0
 10 30  4  0
 11 17  4  0
 12 27  1  0
 13 17  4  0
 13 34  4  0
 15 32  4  0
 15 33  4  0
 16 20  4  0
 16 21  4  0
 16 27  1  0
 18 33  4  0
 19 20  4  0
 19 31  4  0
 21 28  4  0
 22 26  1  0
 22 29  1  0
 23 26  1  0
 23 28  1  0
 24 34  4  0
 25 26  2  0
 28 31  4  0
 29 32  4  0
M  END
$$$$

 Created by Python create_sdf_string function

 34 38  0  0  0  0  0  0  0  0999 V2000
    4.2385   -7.3076   16.0170 C   0  0  0  0  0  0  0  0  0  0  0  0
    8.7400   -7.6816   17.7575 C   0  0  0  0  0  0  0  0  0  0  0  0
    1.0905   -9.0918   16.5090 C   0  0  0  0  0  0  0  0  0  0  0  0
   10.4287   -3.5149   25.9436 C   0  0  0  0  0  0  0  0  0  0  0  0
   11.0349   -3.1277   22.2239 C   0  0  0  0  0  0  0  0  0  0  0  0
    9.5171   -2.4633   26.1686 C   0  0  0  0  0  0  0  0  0  0  0  0
    0.3113  -10.0342   15.7086 C   0  0  0  0  0  0  0  0  0  0  0  0
    7.4660   -8.4884   17.6030 C   0  0  0  0  0  0  0  0  0  0  0  0
    9.1916   -1.5875   25.1036 C   0  0  0  0  0  0  0  0  0  0  0  0
   10.5356   -2.8982   23.6107 C   0  0  0  0  0  0  0  0  0  0  0  0
   -0.5595  -10.9463   16.2511 C   0  0  0  0  0  0  0  0  0  0  0  0
   10.6509   -3.6109   21.0170 C   0  0  0  0  0  0  0  0  0  0  0  0
   -0.9736  -11.9028   14.2069 C   0  0  0  0  0  0  0  0  0  0  0  0
   10.9169   -3.7253   24.6641 C   0  0  0  0  0  0  0  0  0  0  0  0
    3.2946   -9.3862   17.4370 C   0  0  0  0  0  0  0  0  0  0  0  0
   10.6789   -3.9971   18.6223 C   0  0  0  0  0  0  0  0  0  0  0  0
   -1.1808  -11.9138   15.5624 C   0  0  0  0  0  0  0  0  0  0  0  0
    2.9772   -7.6564   15.9419 C   0  0  0  0  0  0  0  0  0  0  0  0
   10.6134   -3.5818   16.3846 C   0  0  0  0  0  0  0  0  0  0  0  0
   11.0642   -3.2690   17.6136 N   0  0  0  0  0  0  0  0  0  0  0  0
    9.9001   -5.0717   18.4490 C   0  0  0  0  0  0  0  0  0  0  0  0
    6.4598   -7.6569   16.8997 C   0  0  0  0  0  0  0  0  0  0  0  0
    8.5124   -6.4235   17.0944 N   0  0  0  0  0  0  0  0  0  0  0  0
    0.4327  -10.0164   14.3485 C   0  0  0  0  0  0  0  0  0  0  0  0
    6.9929   -5.8276   15.5099 O   0  0  0  0  0  0  0  0  0  0  0  0
    7.3090   -6.5232   16.3919 C   0  0  0  0  0  0  0  0  0  0  0  0
   11.1334   -3.5960   19.8383 N   0  0  0  0  0  0  0  0  0  0  0  0
    9.4090   -5.3780   17.2348 C   0  0  0  0  0  0  0  0  0  0  0  0
    5.0488   -8.0649   16.8466 C   0  0  0  0  0  0  0  0  0  0  0  0
    9.7002   -1.7895   23.8052 C   0  0  0  0  0  0  0  0  0  0  0  0
    9.7658   -4.6063   16.1452 C   0  0  0  0  0  0  0  0  0  0  0  0
    4.5424   -9.0866   17.5544 N   0  0  0  0  0  0  0  0  0  0  0  0
    2.4720   -8.7214   16.6089 C   0  0  0  0  0  0  0  0  0  0  0  0
   -0.1986  -10.9461   13.5814 C   0  0  0  0  0  0  0  0  0  0  0  0
  1 18  4  0
  1 29  4  0
  2  8  1  0
  2 23  1  0
  3  7  1  0
  3 33  1  0
  4  6  4  0
  4 14  4  0
  5 10  1  0
  5 12  2  0
  6  9  4  0
  7 11  4  0
  7 24  4  0
  8 22  1  0
  9 30  4  0
 10 14  4  0
 10 30  4  0
 11 17  4  0
 12 27  1  0
 13 17  4  0
 13 34  4  0
 15 32  4  0
 15 33  4  0
 16 20  4  0
 16 21  4  0
 16 27  1  0
 18 33  4  0
 19 20  4  0
 19 31  4  0
 21 28  4  0
 22 26  1  0
 22 29  1  0
 23 26  1  0
 23 28  1  0
 24 34  4  0
 25 26  2  0
 28 31  4  0
 29 32  4  0
M  END
$$$$

 Created by Python create_sdf_string function

 34 43  0  0  0  0  0  0  0  0999 V2000
    4.2445   -7.3242   16.0177 C   0  0  0  0  0  0  0  0  0  0  0  0
    8.7008   -7.6659   17.7698 C   0  0  0  0  0  0  0  0  0  0  0  0
    1.0592   -9.0941   16.4809 C   0  0  0  0  0  0  0  0  0  0  0  0
   10.4648   -3.4737   26.0087 C   0  0  0  0  0  0  0  0  0  0  0  0
   10.9804   -3.1240   22.2311 Cl  0  0  0  0  0  0  0  0  0  0  0  0
    9.5128   -2.4744   26.1634 C   0  0  0  0  0  0  0  0  0  0  0  0
    0.3188  -10.0428   15.7224 C   0  0  0  0  0  0  0  0  0  0  0  0
    7.4588   -8.4525   17.5620 C   0  0  0  0  0  0  0  0  0  0  0  0
    9.1998   -1.5798   25.1261 C   0  0  0  0  0  0  0  0  0  0  0  0
   10.5565   -2.9048   23.6274 C   0  0  0  0  0  0  0  0  0  0  0  0
   -0.5790  -10.9992   16.2615 C   0  0  0  0  0  0  0  0  0  0  0  0
   10.6580   -3.5780   21.0607 C   0  0  0  0  0  0  0  0  0  0  0  0
   -0.9811  -11.9148   14.1858 C   0  0  0  0  0  0  0  0  0  0  0  0
   10.9641   -3.7053   24.6462 C   0  0  0  0  0  0  0  0  0  0  0  0
    3.2373   -9.3882   17.4119 C   0  0  0  0  0  0  0  0  0  0  0  0
   10.6411   -3.9909   18.6271 C   0  0  0  0  0  0  0  0  0  0  0  0
   -1.1817  -11.9261   15.5673 C   0  0  0  0  0  0  0  0  0  0  0  0
    3.0022   -7.6899   15.9318 C   0  0  0  0  0  0  0  0  0  0  0  0
   10.6691   -3.6182   16.3339 C   0  0  0  0  0  0  0  0  0  0  0  0
   11.0192   -3.2940   17.6121 N   0  0  0  0  0  0  0  0  0  0  0  0
    9.8563   -5.0645   18.4439 C   0  0  0  0  0  0  0  0  0  0  0  0
    6.4017   -7.6876   16.8874 C   0  0  0  0  0  0  0  0  0  0  0  0
    8.4939   -6.4150   17.0541 N   0  0  0  0  0  0  0  0  0  0  0  0
    0.4110   -9.9443   14.2769 C   0  0  0  0  0  0  0  0  0  0  0  0
    6.9789   -5.7938   15.5382 O   0  0  0  0  0  0  0  0  0  0  0  0
    7.2275   -6.5317   16.4103 C   0  0  0  0  0  0  0  0  0  0  0  0
   11.1167   -3.6202   19.8846 N   0  0  0  0  0  0  0  0  0  0  0  0
    9.4168   -5.3505   17.2580 C   0  0  0  0  0  0  0  0  0  0  0  0
    5.0596   -8.0638   16.8252 C   0  0  0  0  0  0  0  0  0  0  0  0
    9.7933   -4.6167   16.1402 C   0  0  0  0  0  0  0  0  0  0  0  0
    4.5247   -9.1013   17.5903 N   0  0  0  0  0  0  0  0  0  0  0  0
    2.4806   -8.6987   16.6482 C   0  0  0  0  0  0  0  0  0  0  0  0
   -0.1951  -10.9456   13.6186 C   0  0  0  0  0  0  0  0  0  0  0  0
    9.6935   -1.7871   23.8105 He  0  0  0  0  0  0  0  0  0  0  0  0
  1 18  4  0
  1 29  3  0
  2  8  1  0
  2 23  1  0
  3  7  1  0
  3 24  2  0
  3 32  1  0
  4  6  4  0
  4 14  4  0
  5 10  1  0
  5 12  2  0
  6  9  4  0
  7 11  4  0
  7 24  4  0
  8 22  1  0
  8 23  4  0
 10 14  4  0
 11 17  4  0
 12 20  1  0
 12 27  1  0
 13 17  4  0
 13 33  4  0
 14 29  4  0
 14 33  2  0
 15 31  4  0
 15 32  4  0
 16 20  4  0
 16 21  4  0
 16 27  1  0
 18 32  4  0
 19 20  4  0
 19 30  4  0
 20 33  1  0
 21 28  4  0
 22 26  1  0
 22 29  1  0
 23 26  1  0
 23 28  1  0
 24 33  4  0
 25 26  2  0
 28 29  1  0
 28 30  4  0
 29 31  4  0
M  END
$$$$

 Created by Python create_sdf_string function

 34 38  0  0  0  0  0  0  0  0999 V2000
    4.2337   -7.3134   16.0070 C   0  0  0  0  0  0  0  0  0  0  0  0
    8.6917   -7.6537   17.7769 C   0  0  0  0  0  0  0  0  0  0  0  0
    1.0502   -9.0868   16.5190 C   0  0  0  0  0  0  0  0  0  0  0  0
   10.4720   -3.4927   25.9806 C   0  0  0  0  0  0  0  0  0  0  0  0
   10.9406   -3.1518   22.2550 C   0  0  0  0  0  0  0  0  0  0  0  0
    9.5343   -2.4530   26.1652 C   0  0  0  0  0  0  0  0  0  0  0  0
    0.2890  -10.0495   15.7018 C   0  0  0  0  0  0  0  0  0  0  0  0
    7.4414   -8.4568   17.5766 C   0  0  0  0  0  0  0  0  0  0  0  0
    9.1910   -1.5783   25.1160 C   0  0  0  0  0  0  0  0  0  0  0  0
   10.5257   -2.8971   23.6278 C   0  0  0  0  0  0  0  0  0  0  0  0
   -0.5609  -10.9761   16.2795 C   0  0  0  0  0  0  0  0  0  0  0  0
   10.6676   -3.5771   21.0771 C   0  0  0  0  0  0  0  0  0  0  0  0
   -1.0047  -11.9248   14.1749 C   0  0  0  0  0  0  0  0  0  0  0  0
   10.9601   -3.7052   24.6730 C   0  0  0  0  0  0  0  0  0  0  0  0
    3.2839   -9.3796   17.4417 C   0  0  0  0  0  0  0  0  0  0  0  0
   10.6453   -3.9998   18.6247 C   0  0  0  0  0  0  0  0  0  0  0  0
   -1.1911  -11.9287   15.5488 C   0  0  0  0  0  0  0  0  0  0  0  0
    2.9756   -7.6668   15.9362 C   0  0  0  0  0  0  0  0  0  0  0  0
   10.6559   -3.6017   16.3524 C   0  0  0  0  0  0  0  0  0  0  0  0
   11.0532   -3.2837   17.6106 N   0  0  0  0  0  0  0  0  0  0  0  0
    9.8586   -5.0668   18.4585 C   0  0  0  0  0  0  0  0  0  0  0  0
    6.4248   -7.6690   16.8848 C   0  0  0  0  0  0  0  0  0  0  0  0
    8.4830   -6.4114   17.0726 N   0  0  0  0  0  0  0  0  0  0  0  0
    0.3991   -9.9897   14.3243 C   0  0  0  0  0  0  0  0  0  0  0  0
    6.9583   -5.7798   15.5296 O   0  0  0  0  0  0  0  0  0  0  0  0
    7.2435   -6.5125   16.3947 C   0  0  0  0  0  0  0  0  0  0  0  0
   11.0683   -3.6255   19.8603 N   0  0  0  0  0  0  0  0  0  0  0  0
    9.3981   -5.3766   17.2351 C   0  0  0  0  0  0  0  0  0  0  0  0
    5.0412   -8.0556   16.8307 C   0  0  0  0  0  0  0  0  0  0  0  0
    9.6913   -1.8000   23.8178 C   0  0  0  0  0  0  0  0  0  0  0  0
    9.7784   -4.6290   16.1506 C   0  0  0  0  0  0  0  0  0  0  0  0
    4.5309   -9.0759   17.5539 N   0  0  0  0  0  0  0  0  0  0  0  0
    2.4571   -8.7152   16.6223 C   0  0  0  0  0  0  0  0  0  0  0  0
   -0.2285  -10.9538   13.5739 C   0  0  0  0  0  0  0  0  0  0  0  0
  1 18  4  0
  1 29  4  0
  2  8  1  0
  2 23  1  0
  3  7  1  0
  3 33  1  0
  4  6  4  0
  4 14  4  0
  5 10  1  0
  5 12  2  0
  6  9  4  0
  7 11  4  0
  7 24  4  0
  8 22  1  0
  9 30  4  0
 10 14  4  0
 10 30  4  0
 11 17  4  0
 12 27  1  0
 13 17  4  0
 13 34  4  0
 15 32  4  0
 15 33  4  0
 16 20  4  0
 16 21  4  0
 16 27  1  0
 18 33  4  0
 19 20  4  0
 19 31  4  0
 21 28  4  0
 22 26  1  0
 22 29  1  0
 23 26  1  0
 23 28  1  0
 24 34  4  0
 25 26  2  0
 28 31  4  0
 29 32  4  0
M  END
$$$$

 Created by Python create_sdf_string function

 34 42  0  0  0  0  0  0  0  0999 V2000
    4.2422   -7.3011   16.0260 C   0  0  0  0  0  0  0  0  0  0  0  0
    8.7304   -7.6201   17.7489 C   0  0  0  0  0  0  0  0  0  0  0  0
    1.0457   -9.1021   16.5452 C   0  0  0  0  0  0  0  0  0  0  0  0
   10.4478   -3.5086   25.9965 C   0  0  0  0  0  0  0  0  0  0  0  0
   10.9286   -3.1660   22.2639 C   0  0  0  0  0  0  0  0  0  0  0  0
    9.5565   -2.4422   26.1632 C   0  0  0  0  0  0  0  0  0  0  0  0
    0.3041  -10.0239   15.6708 C   0  0  0  0  0  0  0  0  0  0  0  0
    7.4554   -8.4484   17.5546 C   0  0  0  0  0  0  0  0  0  0  0  0
    9.2226   -1.5545   25.0917 C   0  0  0  0  0  0  0  0  0  0  0  0
   10.5006   -2.9390   23.6509 C   0  0  0  0  0  0  0  0  0  0  0  0
   -0.5481  -10.9552   16.3245 C   0  0  0  0  0  0  0  0  0  0  0  0
   10.6798   -3.5805   21.0476 C   0  0  0  0  0  0  0  0  0  0  0  0
   -1.0042  -11.9321   14.1732 C   0  0  0  0  0  0  0  0  0  0  0  0
   10.9369   -3.6934   24.6496 C   0  0  0  0  0  0  0  0  0  0  0  0
    3.2625   -9.3784   17.4672 C   0  0  0  0  0  0  0  0  0  0  0  0
   10.6514   -4.0258   18.6297 C   0  0  0  0  0  0  0  0  0  0  0  0
   -1.2046  -11.9656   15.5439 C   0  0  0  0  0  0  0  0  0  0  0  0
    2.9445   -7.6634   15.9220 C   0  0  0  0  0  0  0  0  0  0  0  0
   10.6871   -3.6009   16.3718 C   0  0  0  0  0  0  0  0  0  0  0  0
   11.0313   -3.2619   17.5798 N   0  0  0  0  0  0  0  0  0  0  0  0
    9.8716   -5.0444   18.4209 C   0  0  0  0  0  0  0  0  0  0  0  0
    6.4278   -7.6654   16.8686 C   0  0  0  0  0  0  0  0  0  0  0  0
    8.4922   -6.3993   17.0596 N   0  0  0  0  0  0  0  0  0  0  0  0
    0.3527   -9.9686   14.2670 C   0  0  0  0  0  0  0  0  0  0  0  0
    6.9609   -5.8047   15.5397 O   0  0  0  0  0  0  0  0  0  0  0  0
    7.2417   -6.5318   16.3930 C   0  0  0  0  0  0  0  0  0  0  0  0
   11.0557   -3.6275   19.8614 N   0  0  0  0  0  0  0  0  0  0  0  0
    9.3787   -5.3614   17.2397 C   0  0  0  0  0  0  0  0  0  0  0  0
    5.0382   -8.0515   16.8338 C   0  0  0  0  0  0  0  0  0  0  0  0
    9.6782   -1.7811   23.8101 C   0  0  0  0  0  0  0  0  0  0  0  0
    9.7796   -4.6006   16.1155 C   0  0  0  0  0  0  0  0  0  0  0  0
    4.5164   -9.0904   17.5395 N   0  0  0  0  0  0  0  0  0  0  0  0
    2.4702   -8.7563   16.6137 C   0  0  0  0  0  0  0  0  0  0  0  0
   -0.2585  -10.9681   13.5768 C   0  0  0  0  0  0  0  0  0  0  0  0
  1 18  4  0
  1 29  4  0
  2  8  1  0
  2 23  1  0
  3  7  1  0
  3 33  1  0
  4  6  4  0
  4 14  4  0
  5 10  1  0
  5 12  2  0
  6  9  4  0
  7 11  4  0
  7 24  4  0
  8 22  1  0
  9 13  2  0
  9 30  4  0
 10 14  4  0
 10 30  4  0
 11 17  4  0
 11 20  1  0
 12 27  1  0
 13 17  4  0
 13 34  4  0
 15 32  4  0
 15 33  4  0
 16 20  4  0
 16 21  4  0
 16 27  1  0
 16 29  3  0
 18 24  3  0
 18 33  4  0
 19 20  4  0
 19 31  4  0
 21 28  4  0
 22 26  1  0
 22 29  1  0
 23 26  1  0
 23 28  1  0
 24 34  4  0
 25 26  2  0
 28 31  4  0
 29 32  4  0
M  END
$$$$

 Created by Python create_sdf_string function

 34 38  0  0  0  0  0  0  0  0999 V2000
    4.2191   -7.3004   16.0192 C   0  0  0  0  0  0  0  0  0  0  0  0
    8.7058   -7.6281   17.7568 C   0  0  0  0  0  0  0  0  0  0  0  0
    1.0493   -9.1046   16.5279 C   0  0  0  0  0  0  0  0  0  0  0  0
   10.4522   -3.5034   25.9791 C   0  0  0  0  0  0  0  0  0  0  0  0
   10.9235   -3.1815   22.2643 C   0  0  0  0  0  0  0  0  0  0  0  0
    9.5648   -2.4321   26.1708 C   0  0  0  0  0  0  0  0  0  0  0  0
    0.2786  -10.0388   15.6875 C   0  0  0  0  0  0  0  0  0  0  0  0
    7.4421   -8.4435   17.5679 C   0  0  0  0  0  0  0  0  0  0  0  0
    9.2193   -1.5630   25.1144 C   0  0  0  0  0  0  0  0  0  0  0  0
   10.4988   -2.9147   23.6347 C   0  0  0  0  0  0  0  0  0  0  0  0
   -0.5553  -10.9645   16.2939 C   0  0  0  0  0  0  0  0  0  0  0  0
   10.6820   -3.5996   21.0240 C   0  0  0  0  0  0  0  0  0  0  0  0
   -1.0218  -11.9310   14.1772 C   0  0  0  0  0  0  0  0  0  0  0  0
   10.9276   -3.7073   24.6819 C   0  0  0  0  0  0  0  0  0  0  0  0
    3.2824   -9.3728   17.4565 C   0  0  0  0  0  0  0  0  0  0  0  0
   10.6379   -4.0087   18.5991 C   0  0  0  0  0  0  0  0  0  0  0  0
   -1.1988  -11.9435   15.5499 C   0  0  0  0  0  0  0  0  0  0  0  0
    2.9393   -7.6706   15.9439 C   0  0  0  0  0  0  0  0  0  0  0  0
   10.6553   -3.6036   16.3442 C   0  0  0  0  0  0  0  0  0  0  0  0
   11.0544   -3.2813   17.5957 N   0  0  0  0  0  0  0  0  0  0  0  0
    9.8639   -5.0634   18.4323 C   0  0  0  0  0  0  0  0  0  0  0  0
    6.4303   -7.6548   16.8661 C   0  0  0  0  0  0  0  0  0  0  0  0
    8.4821   -6.3977   17.0651 N   0  0  0  0  0  0  0  0  0  0  0  0
    0.3407   -9.9968   14.3078 C   0  0  0  0  0  0  0  0  0  0  0  0
    6.9571   -5.7950   15.5410 O   0  0  0  0  0  0  0  0  0  0  0  0
    7.2551   -6.5123   16.3900 C   0  0  0  0  0  0  0  0  0  0  0  0
   11.0430   -3.6308   19.8405 N   0  0  0  0  0  0  0  0  0  0  0  0
    9.3909   -5.3642   17.2204 C   0  0  0  0  0  0  0  0  0  0  0  0
    5.0301   -8.0504   16.8253 C   0  0  0  0  0  0  0  0  0  0  0  0
    9.6836   -1.7945   23.8120 C   0  0  0  0  0  0  0  0  0  0  0  0
    9.7660   -4.6101   16.1284 C   0  0  0  0  0  0  0  0  0  0  0  0
    4.5356   -9.0606   17.5338 N   0  0  0  0  0  0  0  0  0  0  0  0
    2.4496   -8.7223   16.6268 C   0  0  0  0  0  0  0  0  0  0  0  0
   -0.2737  -10.9578   13.5584 C   0  0  0  0  0  0  0  0  0  0  0  0
  1 18  4  0
  1 29  4  0
  2  8  1  0
  2 23  1  0
  3  7  1  0
  3 33  1  0
  4  6  4  0
  4 14  4  0
  5 10  1  0
  5 12  2  0
  6  9  4  0
  7 11  4  0
  7 24  4  0
  8 22  1  0
  9 30  4  0
 10 14  4  0
 10 30  4  0
 11 17  4  0
 12 27  1  0
 13 17  4  0
 13 34  4  0
 15 32  4  0
 15 33  4  0
 16 20  4  0
 16 21  4  0
 16 27  1  0
 18 33  4  0
 19 20  4  0
 19 31  4  0
 21 28  4  0
 22 26  1  0
 22 29  1  0
 23 26  1  0
 23 28  1  0
 24 34  4  0
 25 26  2  0
 28 31  4  0
 29 32  4  0
M  END
$$$$

 Created by Python create_sdf_string function

 34 38  0  0  0  0  0  0  0  0999 V2000
    4.2395   -7.2983   16.0077 C   0  0  0  0  0  0  0  0  0  0  0  0
    8.6984   -7.6548   17.7534 C   0  0  0  0  0  0  0  0  0  0  0  0
    1.0637   -9.0888   16.5355 C   0  0  0  0  0  0  0  0  0  0  0  0
   10.4633   -3.4964   25.9743 C   0  0  0  0  0  0  0  0  0  0  0  0
   10.9186   -3.1784   22.2820 C   0  0  0  0  0  0  0  0  0  0  0  0
    9.5913   -2.4209   26.1685 C   0  0  0  0  0  0  0  0  0  0  0  0
    0.2744  -10.0189   15.7071 C   0  0  0  0  0  0  0  0  0  0  0  0
    7.4445   -8.4918   17.5515 C   0  0  0  0  0  0  0  0  0  0  0  0
    9.2246   -1.5877   25.1428 C   0  0  0  0  0  0  0  0  0  0  0  0
   10.4827   -2.9461   23.6103 C   0  0  0  0  0  0  0  0  0  0  0  0
   -0.5401  -10.9445   16.2828 C   0  0  0  0  0  0  0  0  0  0  0  0
   10.6382   -3.6209   21.0117 C   0  0  0  0  0  0  0  0  0  0  0  0
   -1.0042  -11.9071   14.1565 C   0  0  0  0  0  0  0  0  0  0  0  0
   10.9107   -3.7032   24.6737 C   0  0  0  0  0  0  0  0  0  0  0  0
    3.2727   -9.3714   17.4535 C   0  0  0  0  0  0  0  0  0  0  0  0
   10.6010   -4.0196   18.5979 C   0  0  0  0  0  0  0  0  0  0  0  0
   -1.2069  -11.9845   15.5336 C   0  0  0  0  0  0  0  0  0  0  0  0
    2.9027   -7.6903   15.9640 C   0  0  0  0  0  0  0  0  0  0  0  0
   10.6558   -3.6286   16.3239 C   0  0  0  0  0  0  0  0  0  0  0  0
   11.0937   -3.2665   17.5989 N   0  0  0  0  0  0  0  0  0  0  0  0
    9.8918   -5.0674   18.4272 C   0  0  0  0  0  0  0  0  0  0  0  0
    6.4541   -7.6356   16.8523 C   0  0  0  0  0  0  0  0  0  0  0  0
    8.4452   -6.4313   17.0638 N   0  0  0  0  0  0  0  0  0  0  0  0
    0.3371  -10.0174   14.3011 C   0  0  0  0  0  0  0  0  0  0  0  0
    6.9302   -5.8299   15.5380 O   0  0  0  0  0  0  0  0  0  0  0  0
    7.2561   -6.4999   16.3826 C   0  0  0  0  0  0  0  0  0  0  0  0
   11.0659   -3.6004   19.8306 N   0  0  0  0  0  0  0  0  0  0  0  0
    9.4050   -5.3561   17.2359 C   0  0  0  0  0  0  0  0  0  0  0  0
    5.0363   -8.0524   16.8553 C   0  0  0  0  0  0  0  0  0  0  0  0
    9.6816   -1.7854   23.8405 C   0  0  0  0  0  0  0  0  0  0  0  0
    9.7610   -4.6179   16.1548 C   0  0  0  0  0  0  0  0  0  0  0  0
    4.5243   -9.0946   17.5036 N   0  0  0  0  0  0  0  0  0  0  0  0
    2.4228   -8.7476   16.6320 C   0  0  0  0  0  0  0  0  0  0  0  0
   -0.2863  -10.9720   13.5257 C   0  0  0  0  0  0  0  0  0  0  0  0
  1 29  4  0
  1 33  4  0
  2  8  1  0
  2 23  1  0
  3  7  1  0
  3 33  1  0
  4  6  4  0
  4 14  4  0
  5 10  1  0
  5 12  2  0
  6  9  4  0
  7 11  4  0
  7 24  4  0
  8 22  1  0
  9 30  4  0
 10 14  4  0
 10 30  4  0
 11 17  4  0
 12 27  1  0
 13 17  4  0
 13 34  4  0
 15 32  4  0
 15 33  4  0
 16 20  4  0
 16 21  4  0
 16 27  1  0
 18 33  4  0
 19 20  4  0
 19 31  4  0
 22 26  1  0
 22 29  1  0
 23 26  1  0
 23 28  1  0
 23 29  4  0
 24 34  4  0
 25 26  2  0
 28 31  4  0
 29 32  4  0
M  END
$$$$

 Created by Python create_sdf_string function

 34 38  0  0  0  0  0  0  0  0999 V2000
    4.2088   -7.3179   16.0304 C   0  0  0  0  0  0  0  0  0  0  0  0
    8.6842   -7.6582   17.7639 C   0  0  0  0  0  0  0  0  0  0  0  0
    1.0501   -9.1020   16.5334 C   0  0  0  0  0  0  0  0  0  0  0  0
   10.4688   -3.4993   25.9752 C   0  0  0  0  0  0  0  0  0  0  0  0
   10.8936   -3.2052   22.2549 C   0  0  0  0  0  0  0  0  0  0  0  0
    9.5968   -2.4271   26.1993 C   0  0  0  0  0  0  0  0  0  0  0  0
    0.2750  -10.0386   15.6971 C   0  0  0  0  0  0  0  0  0  0  0  0
    7.4246   -8.4777   17.5598 C   0  0  0  0  0  0  0  0  0  0  0  0
    9.2170   -1.5689   25.1472 C   0  0  0  0  0  0  0  0  0  0  0  0
   10.4795   -2.9248   23.6310 C   0  0  0  0  0  0  0  0  0  0  0  0
   -0.5641  -10.9758   16.2763 C   0  0  0  0  0  0  0  0  0  0  0  0
   10.6468   -3.6246   21.0210 C   0  0  0  0  0  0  0  0  0  0  0  0
   -1.0340  -11.9234   14.1617 C   0  0  0  0  0  0  0  0  0  0  0  0
   10.9088   -3.7124   24.6820 C   0  0  0  0  0  0  0  0  0  0  0  0
    3.2886   -9.3819   17.4521 C   0  0  0  0  0  0  0  0  0  0  0  0
   10.6372   -4.0040   18.6005 C   0  0  0  0  0  0  0  0  0  0  0  0
   -1.1992  -11.9519   15.5348 C   0  0  0  0  0  0  0  0  0  0  0  0
    2.9329   -7.6815   15.9631 C   0  0  0  0  0  0  0  0  0  0  0  0
   10.6479   -3.6188   16.3286 C   0  0  0  0  0  0  0  0  0  0  0  0
   11.0685   -3.2978   17.5825 N   0  0  0  0  0  0  0  0  0  0  0  0
    9.8642   -5.0736   18.4456 C   0  0  0  0  0  0  0  0  0  0  0  0
    6.4336   -7.6441   16.8576 C   0  0  0  0  0  0  0  0  0  0  0  0
    8.4679   -6.4256   17.0787 N   0  0  0  0  0  0  0  0  0  0  0  0
    0.3350  -10.0236   14.3184 C   0  0  0  0  0  0  0  0  0  0  0  0
    6.9307   -5.8030   15.5315 O   0  0  0  0  0  0  0  0  0  0  0  0
    7.2592   -6.5111   16.3908 C   0  0  0  0  0  0  0  0  0  0  0  0
   11.0263   -3.6172   19.8379 N   0  0  0  0  0  0  0  0  0  0  0  0
    9.3787   -5.3893   17.2258 C   0  0  0  0  0  0  0  0  0  0  0  0
    5.0336   -8.0599   16.8310 C   0  0  0  0  0  0  0  0  0  0  0  0
    9.6757   -1.7900   23.8421 C   0  0  0  0  0  0  0  0  0  0  0  0
    9.7539   -4.6334   16.1545 C   0  0  0  0  0  0  0  0  0  0  0  0
    4.5332   -9.0730   17.5218 N   0  0  0  0  0  0  0  0  0  0  0  0
    2.4433   -8.7360   16.6476 C   0  0  0  0  0  0  0  0  0  0  0  0
   -0.2891  -10.9514   13.5361 C   0  0  0  0  0  0  0  0  0  0  0  0
  1 18  4  0
  1 29  4  0
  2  8  1  0
  2 23  1  0
  3  7  1  0
  3 33  1  0
  4  6  4  0
  4 14  4  0
  5 10  1  0
  5 12  2  0
  6  9  4  0
  7 11  4  0
  7 24  4  0
  8 22  1  0
  9 30  4  0
 10 14  4  0
 10 30  4  0
 11 17  4  0
 12 27  1  0
 13 17  4  0
 13 34  4  0
 15 32  4  0
 15 33  4  0
 16 20  4  0
 16 21  4  0
 16 27  1  0
 18 33  4  0
 19 20  4  0
 19 31  4  0
 21 28  4  0
 22 26  1  0
 22 29  1  0
 23 26  1  0
 23 28  1  0
 24 34  4  0
 25 26  2  0
 28 31  4  0
 29 32  4  0
M  END
$$$$

 Created by Python create_sdf_string function

 34 40  0  0  0  0  0  0  0  0999 V2000
    4.2088   -7.3226   16.0247 C   0  0  0  0  0  0  0  0  0  0  0  0
    8.6789   -7.6419   17.7634 C   0  0  0  0  0  0  0  0  0  0  0  0
    1.0449   -9.0783   16.5262 C   0  0  0  0  0  0  0  0  0  0  0  0
   10.4583   -3.4824   25.9650 C   0  0  0  0  0  0  0  0  0  0  0  0
   10.8954   -3.1946   22.2599 C   0  0  0  0  0  0  0  0  0  0  0  0
    9.6027   -2.4245   26.1987 C   0  0  0  0  0  0  0  0  0  0  0  0
    0.2458  -10.0371   15.6937 C   0  0  0  0  0  0  0  0  0  0  0  0
    7.4430   -8.4810   17.5373 C   0  0  0  0  0  0  0  0  0  0  0  0
    9.2206   -1.5690   25.1317 C   0  0  0  0  0  0  0  0  0  0  0  0
   10.4533   -2.9114   23.6267 C   0  0  0  0  0  0  0  0  0  0  0  0
   -0.5824  -10.9804   16.2784 C   0  0  0  0  0  0  0  0  0  0  0  0
   10.6871   -3.6312   21.0194 C   0  0  0  0  0  0  0  0  0  0  0  0
   -1.0048  -11.9191   14.1412 C   0  0  0  0  0  0  0  0  0  0  0  0
   10.8999   -3.6824   24.7044 C   0  0  0  0  0  0  0  0  0  0  0  0
    3.2980   -9.3859   17.4495 C   0  0  0  0  0  0  0  0  0  0  0  0
   10.6276   -4.0368   18.6198 C   0  0  0  0  0  0  0  0  0  0  0  0
   -1.2078  -11.9481   15.5671 C   0  0  0  0  0  0  0  0  0  0  0  0
    2.9253   -7.6636   15.9625 C   0  0  0  0  0  0  0  0  0  0  0  0
   10.6581   -3.5969   16.3494 C   0  0  0  0  0  0  0  0  0  0  0  0
   11.0560   -3.2899   17.5599 N   0  0  0  0  0  0  0  0  0  0  0  0
    9.8657   -5.0795   18.4133 F   0  0  0  0  0  0  0  0  0  0  0  0
    6.4342   -7.6462   16.8612 C   0  0  0  0  0  0  0  0  0  0  0  0
    8.4652   -6.4399   17.0940 N   0  0  0  0  0  0  0  0  0  0  0  0
    0.3227  -10.0338   14.3043 C   0  0  0  0  0  0  0  0  0  0  0  0
    6.9274   -5.7911   15.5469 O   0  0  0  0  0  0  0  0  0  0  0  0
    7.2530   -6.5208   16.4214 C   0  0  0  0  0  0  0  0  0  0  0  0
   11.0091   -3.5971   19.8515 N   0  0  0  0  0  0  0  0  0  0  0  0
    9.3802   -5.3977   17.2239 C   0  0  0  0  0  0  0  0  0  0  0  0
    5.0074   -8.0754   16.8247 C   0  0  0  0  0  0  0  0  0  0  0  0
    9.6779   -1.7984   23.8419 C   0  0  0  0  0  0  0  0  0  0  0  0
    9.7357   -4.6229   16.1299 C   0  0  0  0  0  0  0  0  0  0  0  0
    4.5377   -9.0824   17.5051 N   0  0  0  0  0  0  0  0  0  0  0  0
    2.4192   -8.7481   16.6559 C   0  0  0  0  0  0  0  0  0  0  0  0
   -0.2736  -10.9521   13.5205 C   0  0  0  0  0  0  0  0  0  0  0  0
  1 18  4  0
  1 29  4  0
  2  8  1  0
  2 23  1  0
  3  7  1  0
  3 33  1  0
  4  6  4  0
  4 14  4  0
  5 10  1  0
  5 12  2  0
  5 14  1  0
  6  9  4  0
  7 11  4  0
  7 20  4  0
  7 24  4  0
  8 22  1  0
  9 30  4  0
 10 14  4  0
 10 30  4  0
 11 17  4  0
 12 27  1  0
 13 17  4  0
 13 34  4  0
 15 32  4  0
 15 33  4  0
 16 20  4  0
 16 21  4  0
 16 27  1  0
 18 33  4  0
 19 20  4  0
 19 31  4  0
 21 28  4  0
 22 26  1  0
 22 29  1  0
 23 26  1  0
 23 28  1  0
 24 34  4  0
 25 26  2  0
 28 31  4  0
 29 32  4  0
M  END
$$$$

 Created by Python create_sdf_string function

 34 38  0  0  0  0  0  0  0  0999 V2000
    4.1902   -7.3093   16.0220 C   0  0  0  0  0  0  0  0  0  0  0  0
    8.6765   -7.6482   17.7807 C   0  0  0  0  0  0  0  0  0  0  0  0
    1.0220   -9.0919   16.5354 C   0  0  0  0  0  0  0  0  0  0  0  0
   10.4606   -3.4777   25.9713 C   0  0  0  0  0  0  0  0  0  0  0  0
   10.8857   -3.2146   22.2591 C   0  0  0  0  0  0  0  0  0  0  0  0
    9.5980   -2.4111   26.2112 C   0  0  0  0  0  0  0  0  0  0  0  0
    0.2478  -10.0443   15.7009 C   0  0  0  0  0  0  0  0  0  0  0  0
    7.4225   -8.4636   17.5486 C   0  0  0  0  0  0  0  0  0  0  0  0
    9.2102   -1.5531   25.1537 C   0  0  0  0  0  0  0  0  0  0  0  0
   10.4651   -2.9123   23.6335 C   0  0  0  0  0  0  0  0  0  0  0  0
   -0.5870  -10.9761   16.2775 C   0  0  0  0  0  0  0  0  0  0  0  0
   10.6770   -3.6297   21.0263 C   0  0  0  0  0  0  0  0  0  0  0  0
   -1.0376  -11.9344   14.1582 C   0  0  0  0  0  0  0  0  0  0  0  0
   10.8924   -3.6874   24.6864 C   0  0  0  0  0  0  0  0  0  0  0  0
    3.2917   -9.3834   17.4441 C   0  0  0  0  0  0  0  0  0  0  0  0
   10.6269   -4.0217   18.5856 C   0  0  0  0  0  0  0  0  0  0  0  0
   -1.2104  -11.9389   15.5414 C   0  0  0  0  0  0  0  0  0  0  0  0
    2.9098   -7.6624   15.9684 C   0  0  0  0  0  0  0  0  0  0  0  0
   10.6324   -3.6111   16.3311 C   0  0  0  0  0  0  0  0  0  0  0  0
   11.0572   -3.2997   17.5712 N   0  0  0  0  0  0  0  0  0  0  0  0
    9.8701   -5.0676   18.4026 C   0  0  0  0  0  0  0  0  0  0  0  0
    6.4202   -7.6448   16.8574 C   0  0  0  0  0  0  0  0  0  0  0  0
    8.4812   -6.4234   17.0934 N   0  0  0  0  0  0  0  0  0  0  0  0
    0.3218  -10.0296   14.3320 C   0  0  0  0  0  0  0  0  0  0  0  0
    6.9382   -5.7788   15.5564 O   0  0  0  0  0  0  0  0  0  0  0  0
    7.2638   -6.5024   16.4092 C   0  0  0  0  0  0  0  0  0  0  0  0
   10.9983   -3.6294   19.8214 N   0  0  0  0  0  0  0  0  0  0  0  0
    9.3735   -5.3967   17.2182 C   0  0  0  0  0  0  0  0  0  0  0  0
    5.0166   -8.0541   16.8108 C   0  0  0  0  0  0  0  0  0  0  0  0
    9.6584   -1.7841   23.8446 C   0  0  0  0  0  0  0  0  0  0  0  0
    9.7434   -4.6230   16.1418 C   0  0  0  0  0  0  0  0  0  0  0  0
    4.5391   -9.0704   17.5057 N   0  0  0  0  0  0  0  0  0  0  0  0
    2.4267   -8.7254   16.6469 C   0  0  0  0  0  0  0  0  0  0  0  0
   -0.2867  -10.9487   13.5374 C   0  0  0  0  0  0  0  0  0  0  0  0
  1 18  4  0
  1 29  4  0
  2  8  1  0
  2 23  1  0
  3  7  1  0
  3 33  1  0
  4  6  4  0
  4 14  4  0
  5 10  1  0
  5 12  2  0
  6  9  4  0
  7 11  4  0
  7 24  4  0
  8 22  1  0
  9 30  4  0
 10 14  4  0
 10 30  4  0
 11 17  4  0
 12 27  1  0
 13 17  4  0
 13 34  4  0
 15 32  4  0
 15 33  4  0
 16 20  4  0
 16 21  4  0
 16 27  1  0
 18 33  4  0
 19 20  4  0
 19 31  4  0
 21 28  4  0
 22 26  1  0
 22 29  1  0
 23 26  1  0
 23 28  1  0
 24 34  4  0
 25 26  2  0
 28 31  4  0
 29 32  4  0
M  END
$$$$

 Created by Python create_sdf_string function

 34 42  0  0  0  0  0  0  0  0999 V2000
    4.2035   -7.3081   16.0186 C   0  0  0  0  0  0  0  0  0  0  0  0
    8.6781   -7.6564   17.7881 C   0  0  0  0  0  0  0  0  0  0  0  0
    1.0209   -9.0751   16.5354 C   0  0  0  0  0  0  0  0  0  0  0  0
   10.4633   -3.4786   25.9924 C   0  0  0  0  0  0  0  0  0  0  0  0
   10.8910   -3.2171   22.2570 C   0  0  0  0  0  0  0  0  0  0  0  0
    9.5943   -2.4199   26.2090 C   0  0  0  0  0  0  0  0  0  0  0  0
    0.2340  -10.0391   15.7147 C   0  0  0  0  0  0  0  0  0  0  0  0
    7.4393   -8.4767   17.5506 C   0  0  0  0  0  0  0  0  0  0  0  0
    9.2197   -1.5537   25.1736 C   0  0  0  0  0  0  0  0  0  0  0  0
   10.4752   -2.9156   23.6324 C   0  0  0  0  0  0  0  0  0  0  0  0
   -0.5944  -10.9676   16.2940 C   0  0  0  0  0  0  0  0  0  0  0  0
   10.6719   -3.6336   21.0331 C   0  0  0  0  0  0  0  0  0  0  0  0
   -1.0285  -11.9470   14.1682 C   0  0  0  0  0  0  0  0  0  0  0  0
   10.8819   -3.7136   24.6661 C   0  0  0  0  0  0  0  0  0  0  0  0
    3.2850   -9.3883   17.4402 C   0  0  0  0  0  0  0  0  0  0  0  0
   10.6133   -4.0141   18.5921 C   0  0  0  0  0  0  0  0  0  0  0  0
   -1.1960  -11.9426   15.5515 C   0  0  0  0  0  0  0  0  0  0  0  0
    2.8972   -7.6531   15.9766 C   0  0  0  0  0  0  0  0  0  0  0  0
   10.6136   -3.6184   16.3173 C   0  0  0  0  0  0  0  0  0  0  0  0
   11.0471   -3.3032   17.5652 N   0  0  0  0  0  0  0  0  0  0  0  0
    9.8639   -5.0647   18.3825 C   0  0  0  0  0  0  0  0  0  0  0  0
    6.4195   -7.6295   16.8488 C   0  0  0  0  0  0  0  0  0  0  0  0
    8.4971   -6.4278   17.0779 N   0  0  0  0  0  0  0  0  0  0  0  0
    0.3220  -10.0383   14.3269 C   0  0  0  0  0  0  0  0  0  0  0  0
    6.9374   -5.7736   15.5373 O   0  0  0  0  0  0  0  0  0  0  0  0
    7.2472   -6.5083   16.4110 C   0  0  0  0  0  0  0  0  0  0  0  0
   10.9982   -3.6362   19.8195 N   0  0  0  0  0  0  0  0  0  0  0  0
    9.3833   -5.3738   17.2157 C   0  0  0  0  0  0  0  0  0  0  0  0
    5.0141   -8.0602   16.8231 C   0  0  0  0  0  0  0  0  0  0  0  0
    9.6502   -1.7856   23.8298 C   0  0  0  0  0  0  0  0  0  0  0  0
    9.7575   -4.6216   16.1475 C   0  0  0  0  0  0  0  0  0  0  0  0
    4.5309   -9.0721   17.4978 N   0  0  0  0  0  0  0  0  0  0  0  0
    2.4176   -8.7221   16.6315 C   0  0  0  0  0  0  0  0  0  0  0  0
   -0.3009  -10.9502   13.5423 C   0  0  0  0  0  0  0  0  0  0  0  0
  1 18  4  0
  1 29  4  0
  2  8  1  0
  2 23  1  0
  3  7  1  0
  3 33  1  0
  4  6  4  0
  4 14  4  0
  5 10  1  0
  5 12  2  0
  6  9  4  0
  7 11  4  0
  7 24  4  0
  7 25  4  0
  8 22  1  0
  9 30  4  0
 10 14  4  0
 10 24  4  0
 10 30  4  0
 11 17  4  0
 12 27  1  0
 13 17  4  0
 13 34  4  0
 15 32  4  0
 15 33  4  0
 16 20  4  0
 16 21  4  0
 16 27  1  0
 18 25  1  0
 18 33  4  0
 19 20  4  0
 19 28  1  0
 19 31  4  0
 21 28  4  0
 22 26  1  0
 22 29  1  0
 23 26  1  0
 23 28  1  0
 24 34  4  0
 25 26  2  0
 28 31  4  0
 29 32  4  0
M  END
$$$$

 Created by Python create_sdf_string function

 34 38  0  0  0  0  0  0  0  0999 V2000
    4.1879   -7.2962   16.0247 C   0  0  0  0  0  0  0  0  0  0  0  0
    8.6606   -7.6590   17.7909 C   0  0  0  0  0  0  0  0  0  0  0  0
    1.0070   -9.0914   16.5441 C   0  0  0  0  0  0  0  0  0  0  0  0
   10.4715   -3.4906   25.9843 C   0  0  0  0  0  0  0  0  0  0  0  0
   10.8874   -3.2247   22.2532 C   0  0  0  0  0  0  0  0  0  0  0  0
    9.6009   -2.4162   26.2235 C   0  0  0  0  0  0  0  0  0  0  0  0
    0.2302  -10.0491   15.7162 C   0  0  0  0  0  0  0  0  0  0  0  0
    7.4164   -8.4602   17.5558 C   0  0  0  0  0  0  0  0  0  0  0  0
    9.2150   -1.5468   25.1675 C   0  0  0  0  0  0  0  0  0  0  0  0
   10.4707   -2.9197   23.6336 C   0  0  0  0  0  0  0  0  0  0  0  0
   -0.6039  -10.9763   16.2909 C   0  0  0  0  0  0  0  0  0  0  0  0
   10.6723   -3.6403   21.0263 C   0  0  0  0  0  0  0  0  0  0  0  0
   -1.0512  -11.9489   14.1774 C   0  0  0  0  0  0  0  0  0  0  0  0
   10.8838   -3.7168   24.6813 C   0  0  0  0  0  0  0  0  0  0  0  0
    3.2827   -9.3769   17.4329 C   0  0  0  0  0  0  0  0  0  0  0  0
   10.6180   -4.0189   18.5855 C   0  0  0  0  0  0  0  0  0  0  0  0
   -1.2093  -11.9409   15.5484 C   0  0  0  0  0  0  0  0  0  0  0  0
    2.9049   -7.6491   15.9826 C   0  0  0  0  0  0  0  0  0  0  0  0
   10.6130   -3.6189   16.3300 C   0  0  0  0  0  0  0  0  0  0  0  0
   11.0432   -3.3014   17.5704 N   0  0  0  0  0  0  0  0  0  0  0  0
    9.8545   -5.0807   18.4333 C   0  0  0  0  0  0  0  0  0  0  0  0
    6.4169   -7.6356   16.8509 C   0  0  0  0  0  0  0  0  0  0  0  0
    8.4752   -6.4299   17.0778 N   0  0  0  0  0  0  0  0  0  0  0  0
    0.3069  -10.0433   14.3522 C   0  0  0  0  0  0  0  0  0  0  0  0
    6.9429   -5.7633   15.5441 O   0  0  0  0  0  0  0  0  0  0  0  0
    7.2574   -6.4938   16.3961 C   0  0  0  0  0  0  0  0  0  0  0  0
   10.9913   -3.6317   19.8317 N   0  0  0  0  0  0  0  0  0  0  0  0
    9.3778   -5.3828   17.2196 C   0  0  0  0  0  0  0  0  0  0  0  0
    5.0108   -8.0449   16.8082 C   0  0  0  0  0  0  0  0  0  0  0  0
    9.6524   -1.7912   23.8442 C   0  0  0  0  0  0  0  0  0  0  0  0
    9.7367   -4.6359   16.1284 C   0  0  0  0  0  0  0  0  0  0  0  0
    4.5311   -9.0647   17.4996 N   0  0  0  0  0  0  0  0  0  0  0  0
    2.4205   -8.7136   16.6467 C   0  0  0  0  0  0  0  0  0  0  0  0
   -0.3122  -10.9569   13.5522 C   0  0  0  0  0  0  0  0  0  0  0  0
  1 18  4  0
  1 29  4  0
  2  8  1  0
  2 23  1  0
  3  7  1  0
  3 33  1  0
  4  6  4  0
  4 14  4  0
  5 10  1  0
  5 12  2  0
  6  9  4  0
  7 11  4  0
  7 24  4  0
  8 22  1  0
  9 30  4  0
 10 14  4  0
 10 30  4  0
 11 17  4  0
 12 27  1  0
 13 17  4  0
 13 34  4  0
 15 32  4  0
 15 33  4  0
 16 20  4  0
 16 21  4  0
 16 27  1  0
 18 33  4  0
 19 20  4  0
 19 31  4  0
 21 28  4  0
 22 26  1  0
 22 29  1  0
 23 26  1  0
 23 28  1  0
 24 34  4  0
 25 26  2  0
 28 31  4  0
 29 32  4  0
M  END
$$$$

 Created by Python create_sdf_string function

 34 39  0  0  0  0  0  0  0  0999 V2000
    4.1916   -7.2955   16.0145 C   0  0  0  0  0  0  0  0  0  0  0  0
    8.6604   -7.6637   17.7907 C   0  0  0  0  0  0  0  0  0  0  0  0
    1.0004   -9.0804   16.5453 C   0  0  0  0  0  0  0  0  0  0  0  0
   10.8872   -3.2246   22.2577 C   0  0  0  0  0  0  0  0  0  0  0  0
    9.5971   -2.4112   26.2224 C   0  0  0  0  0  0  0  0  0  0  0  0
    0.2423  -10.0506   15.7162 C   0  0  0  0  0  0  0  0  0  0  0  0
    7.4198   -8.4609   17.5439 C   0  0  0  0  0  0  0  0  0  0  0  0
    9.2102   -1.5318   25.1625 C   0  0  0  0  0  0  0  0  0  0  0  0
   10.4785   -2.9240   23.6275 C   0  0  0  0  0  0  0  0  0  0  0  0
   -0.6100  -10.9776   16.3044 C   0  0  0  0  0  0  0  0  0  0  0  0
   10.6664   -3.6418   21.0293 C   0  0  0  0  0  0  0  0  0  0  0  0
   -1.0503  -11.9497   14.1770 C   0  0  0  0  0  0  0  0  0  0  0  0
   10.8888   -3.7237   24.6745 C   0  0  0  0  0  0  0  0  0  0  0  0
    3.2893   -9.3767   17.4348 C   0  0  0  0  0  0  0  0  0  0  0  0
   10.6186   -4.0079   18.5811 C   0  0  0  0  0  0  0  0  0  0  0  0
   -1.2146  -11.9459   15.5527 C   0  0  0  0  0  0  0  0  0  0  0  0
    2.8945   -7.6516   15.9920 C   0  0  0  0  0  0  0  0  0  0  0  0
   10.6277   -3.6248   16.3298 C   0  0  0  0  0  0  0  0  0  0  0  0
   11.0269   -3.3032   17.5634 N   0  0  0  0  0  0  0  0  0  0  0  0
    9.8539   -5.0844   18.4384 C   0  0  0  0  0  0  0  0  0  0  0  0
    6.4208   -7.6293   16.8505 C   0  0  0  0  0  0  0  0  0  0  0  0
    8.4856   -6.4180   17.0722 N   0  0  0  0  0  0  0  0  0  0  0  0
    0.2984  -10.0520   14.3612 C   0  0  0  0  0  0  0  0  0  0  0  0
    6.9331   -5.7572   15.5454 O   0  0  0  0  0  0  0  0  0  0  0  0
    7.2563   -6.4992   16.3984 C   0  0  0  0  0  0  0  0  0  0  0  0
   10.9955   -3.6242   19.8289 N   0  0  0  0  0  0  0  0  0  0  0  0
    9.3772   -5.3759   17.2300 C   0  0  0  0  0  0  0  0  0  0  0  0
    5.0170   -8.0461   16.8146 C   0  0  0  0  0  0  0  0  0  0  0  0
    9.6609   -1.8006   23.8399 C   0  0  0  0  0  0  0  0  0  0  0  0
    9.7304   -4.6318   16.1235 C   0  0  0  0  0  0  0  0  0  0  0  0
    4.5222   -9.0567   17.4990 N   0  0  0  0  0  0  0  0  0  0  0  0
    2.4139   -8.7193   16.6553 C   0  0  0  0  0  0  0  0  0  0  0  0
   -0.3221  -10.9368   13.5644 C   0  0  0  0  0  0  0  0  0  0  0  0
   10.4928   -3.4953   25.9962 He  0  0  0  0  0  0  0  0  0  0  0  0
  1 17  4  0
  1 28  4  0
  2  7  1  0
  2 22  1  0
  3  4  4  0
  3  6  1  0
  3 19  4  0
  3 32  1  0
  4  9  1  0
  4 11  2  0
  5  8  4  0
  6 10  4  0
  6 23  4  0
  7 21  1  0
  8 29  4  0
  9 13  4  0
  9 29  4  0
 10 16  4  0
 11 26  1  0
 12 16  4  0
 12 33  4  0
 14 31  4  0
 14 32  4  0
 15 19  4  0
 15 20  4  0
 15 26  1  0
 16 17  3  0
 17 32  4  0
 18 19  4  0
 18 30  4  0
 20 27  4  0
 21 25  1  0
 21 28  1  0
 22 25  1  0
 22 27  1  0
 23 33  4  0
 24 25  2  0
 27 30  4  0
 28 31  4  0
M  END
$$$$

 Created by Python create_sdf_string function

 34 38  0  0  0  0  0  0  0  0999 V2000
    4.1777   -7.2840   16.0212 C   0  0  0  0  0  0  0  0  0  0  0  0
    8.6476   -7.6551   17.7912 C   0  0  0  0  0  0  0  0  0  0  0  0
    0.9963   -9.0965   16.5533 C   0  0  0  0  0  0  0  0  0  0  0  0
   10.4784   -3.4751   25.9640 C   0  0  0  0  0  0  0  0  0  0  0  0
   10.8819   -3.2359   22.2467 C   0  0  0  0  0  0  0  0  0  0  0  0
    9.6102   -2.4071   26.2125 C   0  0  0  0  0  0  0  0  0  0  0  0
    0.2273  -10.0581   15.7287 C   0  0  0  0  0  0  0  0  0  0  0  0
    7.4015   -8.4456   17.5510 C   0  0  0  0  0  0  0  0  0  0  0  0
    9.2199   -1.5431   25.1556 C   0  0  0  0  0  0  0  0  0  0  0  0
   10.4746   -2.9264   23.6203 C   0  0  0  0  0  0  0  0  0  0  0  0
   -0.6158  -10.9839   16.3015 C   0  0  0  0  0  0  0  0  0  0  0  0
   10.6667   -3.6459   21.0220 C   0  0  0  0  0  0  0  0  0  0  0  0
   -1.0672  -11.9418   14.1852 C   0  0  0  0  0  0  0  0  0  0  0  0
   10.8971   -3.7310   24.6779 C   0  0  0  0  0  0  0  0  0  0  0  0
    3.2868   -9.3690   17.4334 C   0  0  0  0  0  0  0  0  0  0  0  0
   10.6081   -4.0215   18.5774 C   0  0  0  0  0  0  0  0  0  0  0  0
   -1.2220  -11.9369   15.5510 C   0  0  0  0  0  0  0  0  0  0  0  0
    2.8992   -7.6467   15.9932 C   0  0  0  0  0  0  0  0  0  0  0  0
   10.6103   -3.6271   16.3144 C   0  0  0  0  0  0  0  0  0  0  0  0
   11.0291   -3.3081   17.5601 N   0  0  0  0  0  0  0  0  0  0  0  0
    9.8482   -5.0851   18.4298 C   0  0  0  0  0  0  0  0  0  0  0  0
    6.4130   -7.6235   16.8426 C   0  0  0  0  0  0  0  0  0  0  0  0
    8.4755   -6.4226   17.0841 N   0  0  0  0  0  0  0  0  0  0  0  0
    0.2939  -10.0498   14.3732 C   0  0  0  0  0  0  0  0  0  0  0  0
    6.9452   -5.7558   15.5561 O   0  0  0  0  0  0  0  0  0  0  0  0
    7.2632   -6.4910   16.3961 C   0  0  0  0  0  0  0  0  0  0  0  0
   10.9819   -3.6279   19.8305 N   0  0  0  0  0  0  0  0  0  0  0  0
    9.3739   -5.3840   17.2225 C   0  0  0  0  0  0  0  0  0  0  0  0
    5.0082   -8.0328   16.8032 C   0  0  0  0  0  0  0  0  0  0  0  0
    9.6570   -1.7944   23.8389 C   0  0  0  0  0  0  0  0  0  0  0  0
    9.7250   -4.6350   16.1272 C   0  0  0  0  0  0  0  0  0  0  0  0
    4.5304   -9.0516   17.4982 N   0  0  0  0  0  0  0  0  0  0  0  0
    2.4140   -8.7110   16.6560 C   0  0  0  0  0  0  0  0  0  0  0  0
   -0.3318  -10.9456   13.5737 C   0  0  0  0  0  0  0  0  0  0  0  0
  1 18  4  0
  1 29  4  0
  2  8  1  0
  2 23  1  0
  3  7  1  0
  3 33  1  0
  4  6  4  0
  4 14  4  0
  5 10  1  0
  5 12  2  0
  6  9  4  0
  7 11  4  0
  7 24  4  0
  8 22  1  0
  9 30  4  0
 10 14  4  0
 10 30  4  0
 11 17  4  0
 12 27  1  0
 13 17  4  0
 13 34  4  0
 15 32  4  0
 15 33  4  0
 16 20  4  0
 16 21  4  0
 16 27  1  0
 18 33  4  0
 19 20  4  0
 19 31  4  0
 21 28  4  0
 22 26  1  0
 22 29  1  0
 23 26  1  0
 23 28  1  0
 24 34  4  0
 25 26  2  0
 28 31  4  0
 29 32  4  0
M  END
$$$$

 Created by Python create_sdf_string function

 34 39  0  0  0  0  0  0  0  0999 V2000
    4.1759   -7.2819   16.0225 C   0  0  0  0  0  0  0  0  0  0  0  0
    8.6486   -7.6528   17.7947 C   0  0  0  0  0  0  0  0  0  0  0  0
    0.9937   -9.0960   16.5567 C   0  0  0  0  0  0  0  0  0  0  0  0
   10.4782   -3.4735   25.9701 C   0  0  0  0  0  0  0  0  0  0  0  0
   10.8846   -3.2361   22.2491 C   0  0  0  0  0  0  0  0  0  0  0  0
    9.6059   -2.4054   26.2088 C   0  0  0  0  0  0  0  0  0  0  0  0
    0.2231  -10.0548   15.7227 C   0  0  0  0  0  0  0  0  0  0  0  0
    7.4041   -8.4501   17.5536 C   0  0  0  0  0  0  0  0  0  0  0  0
    9.2213   -1.5425   25.1653 C   0  0  0  0  0  0  0  0  0  0  0  0
   10.4740   -2.9295   23.6240 C   0  0  0  0  0  0  0  0  0  0  0  0
   -0.6161  -10.9818   16.3007 C   0  0  0  0  0  0  0  0  0  0  0  0
   10.6692   -3.6506   21.0257 C   0  0  0  0  0  0  0  0  0  0  0  0
   -1.0652  -11.9458   14.1835 C   0  0  0  0  0  0  0  0  0  0  0  0
   10.8982   -3.7315   24.6790 C   0  0  0  0  0  0  0  0  0  0  0  0
    3.2875   -9.3686   17.4308 C   0  0  0  0  0  0  0  0  0  0  0  0
   10.6081   -4.0140   18.5728 C   0  0  0  0  0  0  0  0  0  0  0  0
   -1.2226  -11.9380   15.5560 C   0  0  0  0  0  0  0  0  0  0  0  0
    2.8942   -7.6480   15.9936 C   0  0  0  0  0  0  0  0  0  0  0  0
   10.6141   -3.6312   16.3086 C   0  0  0  0  0  0  0  0  0  0  0  0
   11.0335   -3.3064   17.5597 N   0  0  0  0  0  0  0  0  0  0  0  0
    9.8502   -5.0855   18.4264 C   0  0  0  0  0  0  0  0  0  0  0  0
    6.4120   -7.6252   16.8455 C   0  0  0  0  0  0  0  0  0  0  0  0
    8.4788   -6.4191   17.0864 N   0  0  0  0  0  0  0  0  0  0  0  0
    0.2955  -10.0463   14.3779 C   0  0  0  0  0  0  0  0  0  0  0  0
    6.9438   -5.7571   15.5508 O   0  0  0  0  0  0  0  0  0  0  0  0
    7.2626   -6.4872   16.3959 C   0  0  0  0  0  0  0  0  0  0  0  0
   10.9820   -3.6300   19.8318 N   0  0  0  0  0  0  0  0  0  0  0  0
    9.3723   -5.3830   17.2251 C   0  0  0  0  0  0  0  0  0  0  0  0
    5.0072   -8.0305   16.7993 C   0  0  0  0  0  0  0  0  0  0  0  0
    9.6612   -1.7957   23.8379 C   0  0  0  0  0  0  0  0  0  0  0  0
    9.7184   -4.6344   16.1246 C   0  0  0  0  0  0  0  0  0  0  0  0
    4.5344   -9.0500   17.4993 N   0  0  0  0  0  0  0  0  0  0  0  0
    2.4128   -8.7100   16.6574 C   0  0  0  0  0  0  0  0  0  0  0  0
   -0.3367  -10.9474   13.5707 C   0  0  0  0  0  0  0  0  0  0  0  0
  1 18  4  0
  1 29  4  0
  2  8  1  0
  2 23  1  0
  3  7  1  0
  3 33  1  0
  4  6  4  0
  4 14  4  0
  5 10  1  0
  5 12  2  0
  6  9  4  0
  7 11  4  0
  7 24  4  0
  8 22  1  0
  9 26  4  0
  9 30  4  0
 10 14  4  0
 10 30  4  0
 11 17  4  0
 12 27  1  0
 13 17  4  0
 13 34  4  0
 15 32  4  0
 15 33  4  0
 16 20  4  0
 16 21  4  0
 16 27  1  0
 18 33  4  0
 19 20  4  0
 19 31  4  0
 21 28  4  0
 22 26  1  0
 22 29  1  0
 23 26  1  0
 23 28  1  0
 24 34  4  0
 25 26  2  0
 28 31  4  0
 29 32  4  0
M  END
$$$$

 Created by Python create_sdf_string function

 34 38  0  0  0  0  0  0  0  0999 V2000
    4.1631   -7.2721   16.0233 C   0  0  0  0  0  0  0  0  0  0  0  0
    8.6356   -7.6486   17.7973 C   0  0  0  0  0  0  0  0  0  0  0  0
    0.9912   -9.1078   16.5631 C   0  0  0  0  0  0  0  0  0  0  0  0
   10.4844   -3.4852   25.9789 C   0  0  0  0  0  0  0  0  0  0  0  0
   10.8821   -3.2456   22.2434 C   0  0  0  0  0  0  0  0  0  0  0  0
    9.6136   -2.4062   26.2254 C   0  0  0  0  0  0  0  0  0  0  0  0
    0.2135  -10.0627   15.7347 C   0  0  0  0  0  0  0  0  0  0  0  0
    7.3880   -8.4361   17.5598 C   0  0  0  0  0  0  0  0  0  0  0  0
    9.2254   -1.5449   25.1611 C   0  0  0  0  0  0  0  0  0  0  0  0
   10.4774   -2.9351   23.6255 C   0  0  0  0  0  0  0  0  0  0  0  0
   -0.6221  -10.9846   16.3007 C   0  0  0  0  0  0  0  0  0  0  0  0
   10.6662   -3.6596   21.0129 C   0  0  0  0  0  0  0  0  0  0  0  0
   -1.0814  -11.9388   14.1919 C   0  0  0  0  0  0  0  0  0  0  0  0
   10.9003   -3.7321   24.6793 C   0  0  0  0  0  0  0  0  0  0  0  0
    3.2827   -9.3617   17.4313 C   0  0  0  0  0  0  0  0  0  0  0  0
   10.6028   -4.0261   18.5727 C   0  0  0  0  0  0  0  0  0  0  0  0
   -1.2341  -11.9361   15.5558 C   0  0  0  0  0  0  0  0  0  0  0  0
    2.8865   -7.6407   15.9944 C   0  0  0  0  0  0  0  0  0  0  0  0
   10.6036   -3.6306   16.3069 C   0  0  0  0  0  0  0  0  0  0  0  0
   11.0275   -3.3148   17.5489 N   0  0  0  0  0  0  0  0  0  0  0  0
    9.8425   -5.0878   18.4248 C   0  0  0  0  0  0  0  0  0  0  0  0
    6.4062   -7.6156   16.8359 C   0  0  0  0  0  0  0  0  0  0  0  0
    8.4684   -6.4222   17.0904 N   0  0  0  0  0  0  0  0  0  0  0  0
    0.2867  -10.0489   14.3842 C   0  0  0  0  0  0  0  0  0  0  0  0
    6.9562   -5.7519   15.5578 O   0  0  0  0  0  0  0  0  0  0  0  0
    7.2660   -6.4858   16.3966 C   0  0  0  0  0  0  0  0  0  0  0  0
   10.9736   -3.6334   19.8239 N   0  0  0  0  0  0  0  0  0  0  0  0
    9.3670   -5.3861   17.2195 C   0  0  0  0  0  0  0  0  0  0  0  0
    4.9970   -8.0236   16.7985 C   0  0  0  0  0  0  0  0  0  0  0  0
    9.6650   -1.8024   23.8448 C   0  0  0  0  0  0  0  0  0  0  0  0
    9.7154   -4.6371   16.1245 C   0  0  0  0  0  0  0  0  0  0  0  0
    4.5329   -9.0451   17.4948 N   0  0  0  0  0  0  0  0  0  0  0  0
    2.4113   -8.7038   16.6610 C   0  0  0  0  0  0  0  0  0  0  0  0
   -0.3428  -10.9492   13.5820 C   0  0  0  0  0  0  0  0  0  0  0  0
  1 18  4  0
  1 29  4  0
  2  8  1  0
  2 23  1  0
  3  7  1  0
  3 33  1  0
  4  6  4  0
  4 14  4  0
  5 10  1  0
  5 12  2  0
  6  9  4  0
  7 11  4  0
  7 24  4  0
  8 22  1  0
  9 30  4  0
 10 14  4  0
 10 30  4  0
 11 17  4  0
 12 27  1  0
 13 17  4  0
 13 34  4  0
 15 32  4  0
 15 33  4  0
 16 20  4  0
 16 21  4  0
 16 27  1  0
 18 33  4  0
 19 20  4  0
 19 31  4  0
 21 28  4  0
 22 26  1  0
 22 29  1  0
 23 26  1  0
 23 28  1  0
 24 34  4  0
 25 26  2  0
 28 31  4  0
 29 32  4  0
M  END
$$$$

 Created by Python create_sdf_string function

 34 38  0  0  0  0  0  0  0  0999 V2000
    4.1631   -7.2721   16.0233 C   0  0  0  0  0  0  0  0  0  0  0  0
    8.6356   -7.6486   17.7973 C   0  0  0  0  0  0  0  0  0  0  0  0
    0.9912   -9.1078   16.5631 C   0  0  0  0  0  0  0  0  0  0  0  0
   10.4844   -3.4852   25.9789 C   0  0  0  0  0  0  0  0  0  0  0  0
   10.8821   -3.2456   22.2434 C   0  0  0  0  0  0  0  0  0  0  0  0
    9.6136   -2.4062   26.2254 C   0  0  0  0  0  0  0  0  0  0  0  0
    0.2135  -10.0627   15.7347 C   0  0  0  0  0  0  0  0  0  0  0  0
    7.3880   -8.4361   17.5598 C   0  0  0  0  0  0  0  0  0  0  0  0
    9.2254   -1.5449   25.1611 C   0  0  0  0  0  0  0  0  0  0  0  0
   10.4774   -2.9351   23.6255 C   0  0  0  0  0  0  0  0  0  0  0  0
   -0.6221  -10.9846   16.3007 C   0  0  0  0  0  0  0  0  0  0  0  0
   10.6662   -3.6596   21.0129 C   0  0  0  0  0  0  0  0  0  0  0  0
   -1.0814  -11.9388   14.1919 C   0  0  0  0  0  0  0  0  0  0  0  0
   10.9003   -3.7321   24.6793 C   0  0  0  0  0  0  0  0  0  0  0  0
    3.2827   -9.3617   17.4313 C   0  0  0  0  0  0  0  0  0  0  0  0
   10.6028   -4.0261   18.5727 C   0  0  0  0  0  0  0  0  0  0  0  0
   -1.2341  -11.9361   15.5558 C   0  0  0  0  0  0  0  0  0  0  0  0
    2.8865   -7.6407   15.9944 C   0  0  0  0  0  0  0  0  0  0  0  0
   10.6036   -3.6306   16.3069 C   0  0  0  0  0  0  0  0  0  0  0  0
   11.0275   -3.3148   17.5489 N   0  0  0  0  0  0  0  0  0  0  0  0
    9.8425   -5.0878   18.4248 C   0  0  0  0  0  0  0  0  0  0  0  0
    6.4062   -7.6156   16.8359 C   0  0  0  0  0  0  0  0  0  0  0  0
    8.4684   -6.4222   17.0904 N   0  0  0  0  0  0  0  0  0  0  0  0
    0.2867  -10.0489   14.3842 C   0  0  0  0  0  0  0  0  0  0  0  0
    6.9562   -5.7519   15.5578 O   0  0  0  0  0  0  0  0  0  0  0  0
    7.2660   -6.4858   16.3966 C   0  0  0  0  0  0  0  0  0  0  0  0
   10.9736   -3.6334   19.8239 N   0  0  0  0  0  0  0  0  0  0  0  0
    9.3670   -5.3861   17.2195 C   0  0  0  0  0  0  0  0  0  0  0  0
    4.9970   -8.0236   16.7985 C   0  0  0  0  0  0  0  0  0  0  0  0
    9.6650   -1.8024   23.8448 C   0  0  0  0  0  0  0  0  0  0  0  0
    9.7154   -4.6371   16.1245 C   0  0  0  0  0  0  0  0  0  0  0  0
    4.5329   -9.0451   17.4948 N   0  0  0  0  0  0  0  0  0  0  0  0
    2.4113   -8.7038   16.6610 C   0  0  0  0  0  0  0  0  0  0  0  0
   -0.3428  -10.9492   13.5820 C   0  0  0  0  0  0  0  0  0  0  0  0
  1 18  4  0
  1 29  4  0
  2  8  1  0
  2 23  1  0
  3  7  1  0
  3 33  1  0
  4  6  4  0
  4 14  4  0
  5 10  1  0
  5 12  2  0
  6  9  4  0
  7 11  4  0
  7 24  4  0
  8 22  1  0
  9 30  4  0
 10 14  4  0
 10 30  4  0
 11 17  4  0
 12 27  1  0
 13 17  4  0
 13 34  4  0
 15 32  4  0
 15 33  4  0
 16 20  4  0
 16 21  4  0
 16 27  1  0
 18 33  4  0
 19 20  4  0
 19 31  4  0
 21 28  4  0
 22 26  1  0
 22 29  1  0
 23 26  1  0
 23 28  1  0
 24 34  4  0
 25 26  2  0
 28 31  4  0
 29 32  4  0
M  END
$$$$

 Created by Python create_sdf_string function

 34 60  0  0  0  0  0  0  0  0999 V2000
    8.2986   -7.8662   18.0836 C   0  0  0  0  0  0  0  0  0  0  0  0
   10.3870   -3.4380   25.0372 C   0  0  0  0  0  0  0  0  0  0  0  0
    6.3209   -5.9077   16.6816 O   0  0  0  0  0  0  0  0  0  0  0  0
    8.8191   -1.7754   26.6583 C   0  0  0  0  0  0  0  0  0  0  0  0
    8.6602   -1.2458   25.0654 C   0  0  0  0  0  0  0  0  0  0  0  0
    8.9188   -9.0193   16.4172 C   0  0  0  0  0  0  0  0  0  0  0  0
   -0.0814  -10.4580   16.4157 C   0  0  0  0  0  0  0  0  0  0  0  0
    7.9181   -7.7135   16.8620 O   0  0  0  0  0  0  0  0  0  0  0  0
   -1.0414  -12.1613   14.0817 C   0  0  0  0  0  0  0  0  0  0  0  0
   10.5431   -3.3900   24.8979 F   0  0  0  0  0  0  0  0  0  0  0  0
    4.2445   -9.8939   17.1963 Cl  0  0  0  0  0  0  0  0  0  0  0  0
   -1.6106  -13.0171   15.0697 C   0  0  0  0  0  0  0  0  0  0  0  0
   10.8751   -3.0202   16.3159 C   0  0  0  0  0  0  0  0  0  0  0  0
    9.0693   -9.2189   18.4128 P   0  0  0  0  0  0  0  0  0  0  0  0
    6.3033   -7.1064   16.8000 C   0  0  0  0  0  0  0  0  0  0  0  0
    9.2484   -6.3792   16.9648 N   0  0  0  0  0  0  0  0  0  0  0  0
   -0.2369  -10.3606   13.9932 C   0  0  0  0  0  0  0  0  0  0  0  0
    7.4263   -5.2267   15.6484 F   0  0  0  0  0  0  0  0  0  0  0  0
    7.1941   -5.9553   16.2473 C   0  0  0  0  0  0  0  0  0  0  0  0
    5.3223   -8.0160   16.7614 C   0  0  0  0  0  0  0  0  0  0  0  0
    9.4075   -4.5548   16.3217 O   0  0  0  0  0  0  0  0  0  0  0  0
    2.1084   -9.0570   16.2046 N   0  0  0  0  0  0  0  0  0  0  0  0
   -0.3117  -11.4191   13.8769 C   0  0  0  0  0  0  0  0  0  0  0  0
    4.4701   -7.3131   16.3296 He  0  0  0  0  0  0  0  0  0  0  0  0
    0.6113   -9.3715   16.7526 He  0  0  0  0  0  0  0  0  0  0  0  0
    0.2409  -10.2538   15.7346 He  0  0  0  0  0  0  0  0  0  0  0  0
    7.1748   -8.3641   17.7088 He  0  0  0  0  0  0  0  0  0  0  0  0
    8.1669   -8.4425   18.4012 He  0  0  0  0  0  0  0  0  0  0  0  0
    3.0945   -7.5388   16.2956 He  0  0  0  0  0  0  0  0  0  0  0  0
    7.5913   -9.0542   15.9821 He  0  0  0  0  0  0  0  0  0  0  0  0
    8.2471   -7.6317   17.9801 He  0  0  0  0  0  0  0  0  0  0  0  0
    9.3005   -5.0771   17.3259 He  0  0  0  0  0  0  0  0  0  0  0  0
   10.3013   -1.8686   24.1069 He  0  0  0  0  0  0  0  0  0  0  0  0
    4.7266   -9.2090   17.6582 He  0  0  0  0  0  0  0  0  0  0  0  0
  1  3  1  0
  1  8  3  0
  1 14  2  0
  1 16  1  0
  1 17  1  0
  1 19  2  0
  2  4  4  0
  2  6  1  0
  2 13  4  0
  3  6  2  0
  3  9  2  0
  3 10  1  0
  3 11  2  0
  3 17  1  0
  4  8  4  0
  4 14  2  0
  4 18  2  0
  5  8  4  0
  5 17  3  0
  5 23  2  0
  6  9  4  0
  6 10  1  0
  6 12  4  0
  6 14  1  0
  6 16  4  0
  6 18  4  0
  6 19  3  0
  6 21  2  0
  6 22  3  0
  6 23  4  0
  7 12  4  0
  8 10  4  0
  8 12  2  0
  8 22  3  0
  9 13  3  0
  9 23  4  0
 10 12  4  0
 11 12  1  0
 11 18  4  0
 12 14  1  0
 12 18  2  0
 12 20  4  0
 12 22  3  0
 13 21  4  0
 13 23  1  0
 14 16  1  0
 14 19  3  0
 14 21  4  0
 14 23  2  0
 15 19  1  0
 15 20  1  0
 15 22  4  0
 16 19  1  0
 16 20  2  0
 17 22  3  0
 17 23  3  0
 18 19  2  0
 19 20  2  0
 19 22  4  0
 22 23  2  0
M  END
$$$$

 Created by Python create_sdf_string function

 34 32  0  0  0  0  0  0  0  0999 V2000
    3.8211   -7.4719   16.1854 C   0  0  0  0  0  0  0  0  0  0  0  0
    8.3982   -7.5468   17.9905 C   0  0  0  0  0  0  0  0  0  0  0  0
    0.8863   -9.3177   16.4753 C   0  0  0  0  0  0  0  0  0  0  0  0
   10.0110   -3.2927   25.5447 C   0  0  0  0  0  0  0  0  0  0  0  0
    6.4264   -6.3243   16.1988 O   0  0  0  0  0  0  0  0  0  0  0  0
    9.0180   -2.1392   26.1894 C   0  0  0  0  0  0  0  0  0  0  0  0
    0.2353  -10.2445   15.6423 C   0  0  0  0  0  0  0  0  0  0  0  0
    7.0853   -8.3450   17.9256 C   0  0  0  0  0  0  0  0  0  0  0  0
    9.0804   -1.2231   25.1043 C   0  0  0  0  0  0  0  0  0  0  0  0
    8.6810   -8.6442   16.1095 F   0  0  0  0  0  0  0  0  0  0  0  0
   -0.4828  -11.2664   16.2653 C   0  0  0  0  0  0  0  0  0  0  0  0
    7.6049   -7.9103   16.7898 C   0  0  0  0  0  0  0  0  0  0  0  0
   -1.1267  -12.1903   14.1792 C   0  0  0  0  0  0  0  0  0  0  0  0
   10.3734   -3.2845   24.8096 C   0  0  0  0  0  0  0  0  0  0  0  0
    3.2972   -9.7641   17.2937 C   0  0  0  0  0  0  0  0  0  0  0  0
    8.1641   -8.0034   18.3251 F   0  0  0  0  0  0  0  0  0  0  0  0
   -1.1648  -12.2211   15.4788 C   0  0  0  0  0  0  0  0  0  0  0  0
    2.6358   -7.9356   16.0656 C   0  0  0  0  0  0  0  0  0  0  0  0
   10.7307   -3.6293   16.4671 C   0  0  0  0  0  0  0  0  0  0  0  0
    9.3300   -8.3843   18.0818 F   0  0  0  0  0  0  0  0  0  0  0  0
    7.5649   -8.9566   15.6613 F   0  0  0  0  0  0  0  0  0  0  0  0
    6.2262   -7.4181   16.7426 C   0  0  0  0  0  0  0  0  0  0  0  0
    8.7175   -6.3469   17.2241 N   0  0  0  0  0  0  0  0  0  0  0  0
    0.1981  -10.2792   14.2396 C   0  0  0  0  0  0  0  0  0  0  0  0
    7.4190   -5.2205   15.4487 O   0  0  0  0  0  0  0  0  0  0  0  0
    7.5387   -6.0703   16.2742 C   0  0  0  0  0  0  0  0  0  0  0  0
    8.5932   -7.3858   18.2443 F   0  0  0  0  0  0  0  0  0  0  0  0
    9.5629   -5.2080   17.3588 C   0  0  0  0  0  0  0  0  0  0  0  0
    4.8728   -8.0865   16.7958 C   0  0  0  0  0  0  0  0  0  0  0  0
    9.9191   -1.8756   24.0855 C   0  0  0  0  0  0  0  0  0  0  0  0
    9.5376   -4.1192   16.2910 O   0  0  0  0  0  0  0  0  0  0  0  0
    4.4509   -9.2848   17.3475 C   0  0  0  0  0  0  0  0  0  0  0  0
    2.2427   -9.0687   16.5753 C   0  0  0  0  0  0  0  0  0  0  0  0
   -0.4957  -11.2006   13.5623 C   0  0  0  0  0  0  0  0  0  0  0  0
  1 18  4  0
  1 29  4  0
  2  8  1  0
  2 23  1  0
  2 27  1  0
  3  7  1  0
  3 33  1  0
  4  6  4  0
  4 14  4  0
  5 26  1  0
  6  9  4  0
  7 11  4  0
  7 24  4  0
  8 12  1  0
  9 30  4  0
 10 21  1  0
 11 17  4  0
 13 17  4  0
 13 34  4  0
 14 30  4  0
 15 32  4  0
 15 33  4  0
 18 33  4  0
 19 31  1  0
 22 26  1  0
 22 29  1  0
 23 26  1  0
 23 28  1  0
 24 34  4  0
 25 26  2  0
 28 31  1  0
 29 32  4  0
M  END
$$$$

 Created by Python create_sdf_string function

 34 54  0  0  0  0  0  0  0  0999 V2000
    3.9370   -7.4681   16.0462 C   0  0  0  0  0  0  0  0  0  0  0  0
   10.5558   -3.2798   25.7430 C   0  0  0  0  0  0  0  0  0  0  0  0
    6.8766   -5.3957   15.6863 C   0  0  0  0  0  0  0  0  0  0  0  0
    0.5812  -10.8793   15.9782 C   0  0  0  0  0  0  0  0  0  0  0  0
    6.9450   -8.0374   17.4637 C   0  0  0  0  0  0  0  0  0  0  0  0
    9.1621   -1.5710   24.1678 C   0  0  0  0  0  0  0  0  0  0  0  0
    8.9994   -8.6235   15.8294 F   0  0  0  0  0  0  0  0  0  0  0  0
   -0.9810  -10.8915   15.3422 C   0  0  0  0  0  0  0  0  0  0  0  0
   -0.9702  -11.4749   14.5871 C   0  0  0  0  0  0  0  0  0  0  0  0
   10.0391   -2.5337   25.3382 N   0  0  0  0  0  0  0  0  0  0  0  0
   -0.8348  -12.0416   16.3767 C   0  0  0  0  0  0  0  0  0  0  0  0
    3.0528   -7.7409   15.8618 C   0  0  0  0  0  0  0  0  0  0  0  0
   10.8837   -2.9952   16.4786 C   0  0  0  0  0  0  0  0  0  0  0  0
    8.1058   -7.1385   17.4966 N   0  0  0  0  0  0  0  0  0  0  0  0
    7.7389   -5.4306   15.8867 O   0  0  0  0  0  0  0  0  0  0  0  0
    7.7599   -6.1649   16.0070 C   0  0  0  0  0  0  0  0  0  0  0  0
    9.2062   -7.6868   17.5121 O   0  0  0  0  0  0  0  0  0  0  0  0
    4.9348   -8.0406   17.4532 C   0  0  0  0  0  0  0  0  0  0  0  0
    9.5069   -4.0011   16.5980 O   0  0  0  0  0  0  0  0  0  0  0  0
    3.9399   -9.1934   17.2819 C   0  0  0  0  0  0  0  0  0  0  0  0
    1.9752   -8.7994   17.1066 O   0  0  0  0  0  0  0  0  0  0  0  0
   -0.5669  -11.1387   14.1502 C   0  0  0  0  0  0  0  0  0  0  0  0
    8.1190   -7.1867   17.9232 He  0  0  0  0  0  0  0  0  0  0  0  0
    0.7124  -10.1297   16.1575 He  0  0  0  0  0  0  0  0  0  0  0  0
    9.2021   -2.4398   26.4763 He  0  0  0  0  0  0  0  0  0  0  0  0
    7.1675   -9.1824   19.5978 He  0  0  0  0  0  0  0  0  0  0  0  0
    3.1167   -9.2963   17.7870 He  0  0  0  0  0  0  0  0  0  0  0  0
    8.9968   -7.6667   17.2616 He  0  0  0  0  0  0  0  0  0  0  0  0
    8.7229   -9.1370   18.7075 He  0  0  0  0  0  0  0  0  0  0  0  0
    6.3365   -7.9194   15.0714 He  0  0  0  0  0  0  0  0  0  0  0  0
    6.1332   -7.4670   16.9947 He  0  0  0  0  0  0  0  0  0  0  0  0
   -0.3893  -10.7380   14.0980 He  0  0  0  0  0  0  0  0  0  0  0  0
    9.7393   -4.4858   17.1517 He  0  0  0  0  0  0  0  0  0  0  0  0
    9.1956   -1.6476   24.5287 He  0  0  0  0  0  0  0  0  0  0  0  0
  1 12  4  0
  1 19  2  0
  2  7  2  0
  2 10  4  0
  2 14  1  0
  2 15  2  0
  2 16  4  0
  3  4  1  0
  3  8  4  0
  3  9  1  0
  3 12  2  0
  3 13  2  0
  3 16  3  0
  3 17  3  0
  3 19  3  0
  3 22  1  0
  4  5  1  0
  4  7  1  0
  4  8  4  0
  4  9  4  0
  4 15  2  0
  4 17  1  0
  5  7  2  0
  5 14  3  0
  6  7  4  0
  6 15  2  0
  6 17  2  0
  7 11  1  0
  7 12  1  0
  7 13  2  0
  7 15  3  0
  7 16  1  0
  7 20  3  0
  7 21  2  0
  7 22  4  0
  8 15  2  0
  8 18  2  0
  9 17  4  0
 10 18  4  0
 10 21  2  0
 12 17  2  0
 12 19  2  0
 12 21  4  0
 13 15  4  0
 13 19  1  0
 14 20  2  0
 14 21  2  0
 15 16  2  0
 15 17  4  0
 15 22  4  0
 16 22  1  0
 17 18  2  0
 17 19  4  0
 17 21  3  0
M  END
$$$$

 Created by Python create_sdf_string function

 34 35  0  0  0  0  0  0  0  0999 V2000
    3.6968   -7.7069   15.9542 C   0  0  0  0  0  0  0  0  0  0  0  0
    8.0413   -7.2321   17.4401 C   0  0  0  0  0  0  0  0  0  0  0  0
    0.8458   -9.1400   16.3598 C   0  0  0  0  0  0  0  0  0  0  0  0
   10.2617   -3.2570   25.9357 C   0  0  0  0  0  0  0  0  0  0  0  0
    6.9467   -6.7005   15.4847 C   0  0  0  0  0  0  0  0  0  0  0  0
    9.1716   -2.5200   26.1752 N   0  0  0  0  0  0  0  0  0  0  0  0
    0.2857  -10.1866   15.7254 C   0  0  0  0  0  0  0  0  0  0  0  0
    7.0239   -8.0397   17.6487 C   0  0  0  0  0  0  0  0  0  0  0  0
    9.0466   -1.5543   24.8154 C   0  0  0  0  0  0  0  0  0  0  0  0
    8.3831   -8.3904   15.8354 F   0  0  0  0  0  0  0  0  0  0  0  0
   -0.3421  -11.1140   16.4032 C   0  0  0  0  0  0  0  0  0  0  0  0
    6.7257   -8.3605   18.9873 F   0  0  0  0  0  0  0  0  0  0  0  0
   -1.2475  -12.0741   14.6214 C   0  0  0  0  0  0  0  0  0  0  0  0
   10.3663   -2.7635   24.9461 N   0  0  0  0  0  0  0  0  0  0  0  0
    2.9615   -9.6222   17.5663 N   0  0  0  0  0  0  0  0  0  0  0  0
    9.2337   -7.4166   17.4382 C   0  0  0  0  0  0  0  0  0  0  0  0
   -1.1233  -12.0704   15.9231 C   0  0  0  0  0  0  0  0  0  0  0  0
    2.6362   -8.0659   15.7198 C   0  0  0  0  0  0  0  0  0  0  0  0
   10.8613   -3.4247   16.4918 C   0  0  0  0  0  0  0  0  0  0  0  0
    8.8991   -8.2288   18.3303 F   0  0  0  0  0  0  0  0  0  0  0  0
    6.6135   -7.9347   15.5794 C   0  0  0  0  0  0  0  0  0  0  0  0
    6.0362   -7.8262   16.7931 C   0  0  0  0  0  0  0  0  0  0  0  0
    8.6833   -6.3252   17.2601 N   0  0  0  0  0  0  0  0  0  0  0  0
    0.1956  -10.3138   14.2409 C   0  0  0  0  0  0  0  0  0  0  0  0
    7.5861   -5.1560   15.4801 O   0  0  0  0  0  0  0  0  0  0  0  0
    7.7327   -6.0249   16.0635 C   0  0  0  0  0  0  0  0  0  0  0  0
    9.6309   -7.5008   17.8121 F   0  0  0  0  0  0  0  0  0  0  0  0
    9.6595   -5.0011   17.2759 C   0  0  0  0  0  0  0  0  0  0  0  0
    4.6729   -8.2234   16.8742 C   0  0  0  0  0  0  0  0  0  0  0  0
    9.4482   -1.6641   24.2359 N   0  0  0  0  0  0  0  0  0  0  0  0
    9.7519   -3.9258   16.4450 O   0  0  0  0  0  0  0  0  0  0  0  0
    4.1368   -9.2031   17.6786 C   0  0  0  0  0  0  0  0  0  0  0  0
    2.1449   -9.0085   16.6028 C   0  0  0  0  0  0  0  0  0  0  0  0
   -0.6560  -11.2674   13.7469 C   0  0  0  0  0  0  0  0  0  0  0  0
  1 18  4  0
  1 29  4  0
  2  8  1  0
  2 20  1  0
  2 23  1  0
  2 26  1  0
  3  7  1  0
  3 33  1  0
  4  6  4  0
  4 14  4  0
  5 21  1  0
  5 26  1  0
  6  9  4  0
  7 11  4  0
  7 24  4  0
  8 12  1  0
  8 22  1  0
  9 30  4  0
 11 17  4  0
 13 17  4  0
 13 34  4  0
 14 30  4  0
 15 32  4  0
 15 33  4  0
 16 27  1  0
 18 33  4  0
 19 31  1  0
 21 22  1  0
 22 29  1  0
 23 26  1  0
 23 28  1  0
 24 34  4  0
 25 26  2  0
 28 31  1  0
 29 32  4  0
M  END
$$$$

 Created by Python create_sdf_string function

 34 97  0  0  0  0  0  0  0  0999 V2000
    3.8807   -8.1866   15.8653 C   0  0  0  0  0  0  0  0  0  0  0  0
    7.6922   -7.8763   17.6903 O   0  0  0  0  0  0  0  0  0  0  0  0
    7.6833   -7.6912   15.7771 Cl  0  0  0  0  0  0  0  0  0  0  0  0
    9.2486   -2.8923   26.5166 N   0  0  0  0  0  0  0  0  0  0  0  0
    0.3922  -10.5018   15.7774 C   0  0  0  0  0  0  0  0  0  0  0  0
    7.1382   -8.0790   17.4382 C   0  0  0  0  0  0  0  0  0  0  0  0
    9.5185   -1.7629   24.5819 C   0  0  0  0  0  0  0  0  0  0  0  0
    8.6839   -8.2991   15.3644 C   0  0  0  0  0  0  0  0  0  0  0  0
   -0.3428  -11.3263   16.3665 F   0  0  0  0  0  0  0  0  0  0  0  0
    5.7358   -7.5620   18.1464 C   0  0  0  0  0  0  0  0  0  0  0  0
   -1.2291  -11.7536   14.6000 C   0  0  0  0  0  0  0  0  0  0  0  0
    9.9080   -3.1070   25.6614 N   0  0  0  0  0  0  0  0  0  0  0  0
   -1.3046  -11.7908   15.8869 C   0  0  0  0  0  0  0  0  0  0  0  0
    3.3652   -7.6045   16.5401 C   0  0  0  0  0  0  0  0  0  0  0  0
   10.4026   -3.4784   15.8109 C   0  0  0  0  0  0  0  0  0  0  0  0
    9.0883   -7.7683   18.4107 Br  0  0  0  0  0  0  0  0  0  0  0  0
    7.8447   -7.0336   16.7806 N   0  0  0  0  0  0  0  0  0  0  0  0
    0.3642  -11.0321   13.5574 C   0  0  0  0  0  0  0  0  0  0  0  0
    7.0713   -4.9541   15.4381 O   0  0  0  0  0  0  0  0  0  0  0  0
    8.6668   -7.0760   15.2218 C   0  0  0  0  0  0  0  0  0  0  0  0
   12.3792   -9.3432   16.9194 C   0  0  0  0  0  0  0  0  0  0  0  0
    9.7155   -4.9452   17.6644 N   0  0  0  0  0  0  0  0  0  0  0  0
    5.0268   -8.7934   16.3149 C   0  0  0  0  0  0  0  0  0  0  0  0
    9.5851   -3.8100   16.7557 O   0  0  0  0  0  0  0  0  0  0  0  0
    3.7758   -8.6487   17.4825 C   0  0  0  0  0  0  0  0  0  0  0  0
    1.5651   -9.0553   16.0600 C   0  0  0  0  0  0  0  0  0  0  0  0
   -0.8418  -11.3143   14.5394 C   0  0  0  0  0  0  0  0  0  0  0  0
    1.0368   -9.3976   16.1651 He  0  0  0  0  0  0  0  0  0  0  0  0
   10.4107   -3.7867   26.4374 He  0  0  0  0  0  0  0  0  0  0  0  0
    3.0015   -9.4896   17.5678 He  0  0  0  0  0  0  0  0  0  0  0  0
    8.0302   -5.5464   17.4782 He  0  0  0  0  0  0  0  0  0  0  0  0
    5.7620   -7.9195   16.8941 He  0  0  0  0  0  0  0  0  0  0  0  0
    8.9030   -6.0260   17.0389 He  0  0  0  0  0  0  0  0  0  0  0  0
    8.8126   -1.6124   24.9101 He  0  0  0  0  0  0  0  0  0  0  0  0
  1  8  2  0
  1 11  1  0
  1 12  2  0
  1 13  1  0
  1 14  4  0
  1 17  2  0
  1 22  2  0
  1 23  4  0
  1 24  1  0
  2  6  1  0
  2  8  4  0
  2 20  1  0
  3  4  4  0
  3  5  2  0
  3  7  2  0
  3  9  1  0
  3 11  2  0
  3 20  2  0
  3 21  4  0
  3 22  1  0
  3 27  2  0
  4  5  1  0
  4  7  4  0
  4 10  1  0
  4 17  3  0
  4 19  3  0
  4 24  2  0
  5  8  2  0
  5  9  4  0
  5 18  4  0
  5 19  2  0
  5 26  1  0
  6 10  3  0
  6 11  3  0
  6 21  1  0
  6 22  2  0
  6 23  3  0
  6 25  3  0
  7 15  4  0
  7 17  4  0
  7 22  4  0
  7 23  3  0
  7 27  1  0
  8  9  4  0
  8 10  4  0
  8 13  4  0
  8 14  1  0
  8 16  2  0
  8 23  4  0
  8 25  3  0
  8 26  4  0
  8 27  2  0
  9 13  4  0
  9 17  1  0
 10 11  2  0
 10 12  1  0
 10 13  1  0
 10 14  1  0
 10 21  2  0
 11 12  2  0
 11 13  1  0
 11 17  1  0
 11 21  3  0
 11 26  2  0
 11 27  4  0
 12 17  2  0
 12 18  1  0
 13 17  3  0
 14 17  2  0
 14 20  1  0
 14 24  2  0
 14 26  4  0
 14 27  1  0
 15 16  3  0
 15 17  3  0
 15 19  2  0
 15 24  1  0
 15 27  4  0
 16 23  2  0
 17 22  4  0
 17 23  4  0
 18 21  3  0
 18 25  3  0
 18 26  2  0
 18 27  4  0
 19 20  2  0
 19 26  2  0
 20 21  4  0
 20 25  2  0
 20 26  2  0
 21 22  4  0
 21 23  2  0
 21 26  4  0
 22 24  1  0
 22 26  2  0
 23 25  4  0
 25 26  3  0
M  END
$$$$

 Created by Python create_sdf_string function

 34 30  0  0  0  0  0  0  0  0999 V2000
    3.8000   -7.8445   15.8882 C   0  0  0  0  0  0  0  0  0  0  0  0
    7.7678   -7.9904   17.8988 C   0  0  0  0  0  0  0  0  0  0  0  0
    1.0701   -9.4171   16.0325 C   0  0  0  0  0  0  0  0  0  0  0  0
   10.1138   -3.7445   26.3374 C   0  0  0  0  0  0  0  0  0  0  0  0
    7.5508   -8.1521   15.5852 C   0  0  0  0  0  0  0  0  0  0  0  0
    9.1645   -2.9494   26.4581 N   0  0  0  0  0  0  0  0  0  0  0  0
    0.3091  -10.3861   15.5771 C   0  0  0  0  0  0  0  0  0  0  0  0
    7.0938   -8.0853   17.3339 C   0  0  0  0  0  0  0  0  0  0  0  0
    9.4169   -1.9371   24.7520 C   0  0  0  0  0  0  0  0  0  0  0  0
    8.1893   -8.3879   15.4740 C   0  0  0  0  0  0  0  0  0  0  0  0
   -0.3835  -11.1614   16.4289 N   0  0  0  0  0  0  0  0  0  0  0  0
    6.1671   -7.8271   18.2996 C   0  0  0  0  0  0  0  0  0  0  0  0
   -1.5002  -12.0910   14.6223 C   0  0  0  0  0  0  0  0  0  0  0  0
   10.1226   -3.1082   25.2935 N   0  0  0  0  0  0  0  0  0  0  0  0
    2.7740   -9.7822   17.4036 C   0  0  0  0  0  0  0  0  0  0  0  0
    8.2152   -5.9782   16.5771 C   0  0  0  0  0  0  0  0  0  0  0  0
   -1.3535  -12.0045   15.9057 C   0  0  0  0  0  0  0  0  0  0  0  0
    2.5751   -8.0586   15.8269 C   0  0  0  0  0  0  0  0  0  0  0  0
   10.2523   -3.7387   15.8231 C   0  0  0  0  0  0  0  0  0  0  0  0
    9.2421   -7.5015   18.1464 C   0  0  0  0  0  0  0  0  0  0  0  0
    7.9464   -6.9875   16.8859 C   0  0  0  0  0  0  0  0  0  0  0  0
    5.9716   -8.4179   16.8108 C   0  0  0  0  0  0  0  0  0  0  0  0
    9.0260   -5.9480   17.1610 C   0  0  0  0  0  0  0  0  0  0  0  0
    0.2340  -10.5611   14.1471 C   0  0  0  0  0  0  0  0  0  0  0  0
    7.3359   -5.2298   15.5575 O   0  0  0  0  0  0  0  0  0  0  0  0
    8.6366   -7.5741   15.0844 C   0  0  0  0  0  0  0  0  0  0  0  0
    9.9008   -8.2695   17.5654 C   0  0  0  0  0  0  0  0  0  0  0  0
    9.6940   -4.9890   17.5802 N   0  0  0  0  0  0  0  0  0  0  0  0
    4.6529   -8.5819   16.7755 C   0  0  0  0  0  0  0  0  0  0  0  0
    9.0903   -1.8136   24.9987 N   0  0  0  0  0  0  0  0  0  0  0  0
    9.6678   -3.7952   16.7621 O   0  0  0  0  0  0  0  0  0  0  0  0
    4.0695   -9.4744   17.5349 C   0  0  0  0  0  0  0  0  0  0  0  0
    2.0230   -9.1374   16.4426 C   0  0  0  0  0  0  0  0  0  0  0  0
   -0.7476  -11.4453   13.7573 C   0  0  0  0  0  0  0  0  0  0  0  0
  1 18  4  0
  1 29  4  0
  2  8  1  0
  3  7  1  0
  3 33  1  0
  4  6  4  0
  4 14  4  0
  5 10  1  0
  7 11  4  0
  7 24  4  0
  8 22  1  0
  9 14  4  0
  9 30  4  0
 10 26  1  0
 11 17  4  0
 13 17  4  0
 13 34  4  0
 15 32  4  0
 15 33  4  0
 16 21  1  0
 16 23  1  0
 16 25  1  0
 18 33  4  0
 19 31  1  0
 20 27  1  0
 22 29  1  0
 23 28  1  0
 24 34  4  0
 28 31  1  0
 29 32  4  0
M  END
$$$$

 Created by Python create_sdf_string function

 34 90  0  0  0  0  0  0  0  0999 V2000
    3.5579   -7.8077   16.4789 F   0  0  0  0  0  0  0  0  0  0  0  0
    1.2072   -9.7533   15.5584 S   0  0  0  0  0  0  0  0  0  0  0  0
   10.0660   -3.5213   26.6272 C   0  0  0  0  0  0  0  0  0  0  0  0
    6.7611   -8.1748   17.6626 P   0  0  0  0  0  0  0  0  0  0  0  0
    8.6365   -2.4327   26.5017 N   0  0  0  0  0  0  0  0  0  0  0  0
   -0.4906  -10.3970   15.4513 P   0  0  0  0  0  0  0  0  0  0  0  0
    7.5492   -8.0978   17.3778 C   0  0  0  0  0  0  0  0  0  0  0  0
    9.3581   -0.8852   24.8690 C   0  0  0  0  0  0  0  0  0  0  0  0
    6.7865   -7.2661   17.9203 O   0  0  0  0  0  0  0  0  0  0  0  0
   -1.6175  -11.7282   13.9513 C   0  0  0  0  0  0  0  0  0  0  0  0
   10.2549   -3.0902   24.9900 N   0  0  0  0  0  0  0  0  0  0  0  0
    2.5412   -9.6756   17.1857 C   0  0  0  0  0  0  0  0  0  0  0  0
   -1.2238  -12.6988   15.8571 F   0  0  0  0  0  0  0  0  0  0  0  0
    2.5338   -8.6041   15.7557 C   0  0  0  0  0  0  0  0  0  0  0  0
   10.5274   -3.6336   14.9684 C   0  0  0  0  0  0  0  0  0  0  0  0
    7.4183   -7.6793   18.0998 F   0  0  0  0  0  0  0  0  0  0  0  0
    8.4898   -6.2477   17.9050 O   0  0  0  0  0  0  0  0  0  0  0  0
    6.5186   -8.5620   17.1164 C   0  0  0  0  0  0  0  0  0  0  0  0
    8.7712   -5.2238   16.1951 C   0  0  0  0  0  0  0  0  0  0  0  0
    0.5777  -11.5075   14.2387 C   0  0  0  0  0  0  0  0  0  0  0  0
    7.5732   -5.2169   16.0186 C   0  0  0  0  0  0  0  0  0  0  0  0
    8.4651   -7.3718   15.1918 C   0  0  0  0  0  0  0  0  0  0  0  0
    4.4504   -9.1458   16.5089 C   0  0  0  0  0  0  0  0  0  0  0  0
    8.3723   -2.0001   25.1957 C   0  0  0  0  0  0  0  0  0  0  0  0
    9.3196   -3.7273   17.0564 C   0  0  0  0  0  0  0  0  0  0  0  0
    3.6282   -9.5718   17.4397 Cl  0  0  0  0  0  0  0  0  0  0  0  0
    2.0907   -8.7999   16.6470 Cl  0  0  0  0  0  0  0  0  0  0  0  0
   -0.0096  -11.2056   13.9539 C   0  0  0  0  0  0  0  0  0  0  0  0
    7.8729   -7.4288   17.6977 He  0  0  0  0  0  0  0  0  0  0  0  0
    7.7226   -7.9851   14.6632 He  0  0  0  0  0  0  0  0  0  0  0  0
   -0.3019  -11.3861   16.1446 He  0  0  0  0  0  0  0  0  0  0  0  0
    8.3354   -5.8107   17.8127 He  0  0  0  0  0  0  0  0  0  0  0  0
    8.1945   -8.1409   16.9402 He  0  0  0  0  0  0  0  0  0  0  0  0
    9.1183   -5.7220   17.3831 He  0  0  0  0  0  0  0  0  0  0  0  0
  1  4  4  0
  1  9  1  0
  1 14  2  0
  1 17  3  0
  1 21  1  0
  1 23  4  0
  2  6  1  0
  2  7  2  0
  2 12  4  0
  2 18  4  0
  2 19  4  0
  2 27  1  0
  3  5  4  0
  3 15  4  0
  4  5  4  0
  4  6  4  0
  4  8  3  0
  4 10  3  0
  4 12  1  0
  4 13  1  0
  4 15  3  0
  4 17  3  0
  4 20  2  0
  4 21  2  0
  4 23  4  0
  4 25  1  0
  4 26  2  0
  5 10  1  0
  5 14  4  0
  5 16  1  0
  5 25  4  0
  6  9  4  0
  6 18  4  0
  6 20  4  0
  7  9  1  0
  7 10  3  0
  7 11  1  0
  7 16  4  0
  7 17  2  0
  7 18  1  0
  7 26  2  0
  8 11  4  0
  8 16  3  0
  8 17  1  0
  8 24  3  0
  9 13  4  0
  9 14  4  0
  9 15  4  0
  9 23  2  0
  9 26  4  0
  9 28  2  0
 10 13  4  0
 10 16  1  0
 10 17  4  0
 10 22  3  0
 10 28  4  0
 11 15  2  0
 11 24  1  0
 12 17  4  0
 12 18  4  0
 12 27  4  0
 13 16  1  0
 13 20  2  0
 13 25  4  0
 14 16  4  0
 14 17  3  0
 14 27  4  0
 15 16  3  0
 15 17  1  0
 15 18  2  0
 16 17  1  0
 16 19  2  0
 16 21  2  0
 16 22  2  0
 16 25  2  0
 17 19  3  0
 17 21  1  0
 17 24  3  0
 17 25  3  0
 17 26  2  0
 17 28  1  0
 18 20  1  0
 18 21  1  0
 19 24  4  0
 20 26  1  0
 20 28  4  0
 21 24  1  0
 21 26  1  0
 22 26  4  0
 23 26  4  0
M  END
$$$$

 Created by Python create_sdf_string function

 34 28  0  0  0  0  0  0  0  0999 V2000
    3.8224   -7.9394   16.1231 C   0  0  0  0  0  0  0  0  0  0  0  0
    8.2796   -7.5392   17.8621 C   0  0  0  0  0  0  0  0  0  0  0  0
    0.6296   -9.2812   16.1323 C   0  0  0  0  0  0  0  0  0  0  0  0
    9.8292   -3.4108   26.3489 C   0  0  0  0  0  0  0  0  0  0  0  0
    6.0733   -8.4119   17.4841 C   0  0  0  0  0  0  0  0  0  0  0  0
    8.6622   -2.6700   26.4872 N   0  0  0  0  0  0  0  0  0  0  0  0
    0.1377  -10.4172   15.4797 C   0  0  0  0  0  0  0  0  0  0  0  0
    7.5364   -8.3474   17.3867 C   0  0  0  0  0  0  0  0  0  0  0  0
    9.3956   -1.5007   24.7436 C   0  0  0  0  0  0  0  0  0  0  0  0
    7.6293   -8.4154   15.4152 C   0  0  0  0  0  0  0  0  0  0  0  0
   -0.4909  -11.3493   16.2709 C   0  0  0  0  0  0  0  0  0  0  0  0
    6.6792   -7.3059   18.0899 C   0  0  0  0  0  0  0  0  0  0  0  0
   -1.2792  -12.2854   14.2658 C   0  0  0  0  0  0  0  0  0  0  0  0
   10.1644   -2.8086   25.0660 N   0  0  0  0  0  0  0  0  0  0  0  0
    2.5846   -9.9872   17.3612 C   0  0  0  0  0  0  0  0  0  0  0  0
    8.7801   -6.0389   17.5846 C   0  0  0  0  0  0  0  0  0  0  0  0
   -1.2847  -12.2273   15.5855 C   0  0  0  0  0  0  0  0  0  0  0  0
    2.6205   -8.1862   15.7614 C   0  0  0  0  0  0  0  0  0  0  0  0
   10.2843   -3.7293   15.7793 C   0  0  0  0  0  0  0  0  0  0  0  0
    7.8523   -7.5189   18.0418 C   0  0  0  0  0  0  0  0  0  0  0  0
    8.9256   -6.1269   17.7467 C   0  0  0  0  0  0  0  0  0  0  0  0
    6.6544   -9.0893   16.8669 C   0  0  0  0  0  0  0  0  0  0  0  0
    8.9711   -5.3276   16.1391 C   0  0  0  0  0  0  0  0  0  0  0  0
    0.3209  -10.4733   14.1335 C   0  0  0  0  0  0  0  0  0  0  0  0
    7.9029   -5.3942   15.7115 C   0  0  0  0  0  0  0  0  0  0  0  0
    8.4458   -7.7110   15.0062 C   0  0  0  0  0  0  0  0  0  0  0  0
    8.1956   -8.0887   16.3461 C   0  0  0  0  0  0  0  0  0  0  0  0
    9.5226   -5.0868   17.1169 C   0  0  0  0  0  0  0  0  0  0  0  0
    4.4851   -8.7913   17.0026 C   0  0  0  0  0  0  0  0  0  0  0  0
    8.5836   -1.6672   25.3745 C   0  0  0  0  0  0  0  0  0  0  0  0
   10.0426   -3.8710   16.9289 C   0  0  0  0  0  0  0  0  0  0  0  0
    3.8528   -9.7562   17.6243 C   0  0  0  0  0  0  0  0  0  0  0  0
    1.9504   -9.1884   16.4016 C   0  0  0  0  0  0  0  0  0  0  0  0
   -0.5171  -11.4746   13.4699 C   0  0  0  0  0  0  0  0  0  0  0  0
  1 18  4  0
  1 29  4  0
  2  8  1  0
  3  7  1  0
  3 33  1  0
  4  6  4  0
  4 14  4  0
  5 22  1  0
  5 29  1  0
  6 30  4  0
  7 11  4  0
  7 24  4  0
  8 22  1  0
  9 14  4  0
  9 30  4  0
 10 22  1  0
 10 26  1  0
 11 17  4  0
 13 17  4  0
 13 34  4  0
 15 32  4  0
 15 33  4  0
 18 33  4  0
 19 31  4  0
 23 25  4  0
 24 34  4  0
 28 31  4  0
 29 32  4  0
M  END
$$$$

 Created by Python create_sdf_string function

 34 98  0  0  0  0  0  0  0  0999 V2000
    3.6479   -8.1384   15.5788 F   0  0  0  0  0  0  0  0  0  0  0  0
    8.0525   -6.8065   17.9589 C   0  0  0  0  0  0  0  0  0  0  0  0
    0.8344   -9.1044   15.3133 I   0  0  0  0  0  0  0  0  0  0  0  0
    9.8909   -3.0111   26.4336 F   0  0  0  0  0  0  0  0  0  0  0  0
    4.7334   -7.4011   18.3607 F   0  0  0  0  0  0  0  0  0  0  0  0
    0.0674   -9.8679   15.1868 C   0  0  0  0  0  0  0  0  0  0  0  0
    7.7196   -8.1126   17.3232 O   0  0  0  0  0  0  0  0  0  0  0  0
    9.5678   -1.7113   25.2890 C   0  0  0  0  0  0  0  0  0  0  0  0
    7.1251   -8.6337   15.9429 N   0  0  0  0  0  0  0  0  0  0  0  0
   -0.2306  -11.3119   15.9174 C   0  0  0  0  0  0  0  0  0  0  0  0
    6.2418   -7.3147   17.1125 F   0  0  0  0  0  0  0  0  0  0  0  0
   -1.3062  -13.1205   14.1266 C   0  0  0  0  0  0  0  0  0  0  0  0
    9.6640   -3.0125   25.3251 N   0  0  0  0  0  0  0  0  0  0  0  0
    3.5449   -9.6871   16.3564 C   0  0  0  0  0  0  0  0  0  0  0  0
   -0.9006  -12.0047   15.0112 C   0  0  0  0  0  0  0  0  0  0  0  0
    2.1043   -8.5994   15.9603 O   0  0  0  0  0  0  0  0  0  0  0  0
   10.1030   -3.7970   15.6330 C   0  0  0  0  0  0  0  0  0  0  0  0
    7.0914   -9.2735   16.5501 C   0  0  0  0  0  0  0  0  0  0  0  0
    8.8962   -5.6051   16.7014 C   0  0  0  0  0  0  0  0  0  0  0  0
    0.7918  -10.8304   13.6945 C   0  0  0  0  0  0  0  0  0  0  0  0
    7.6943   -5.2392   15.7860 Cl  0  0  0  0  0  0  0  0  0  0  0  0
    8.4842   -7.7846   14.8621 C   0  0  0  0  0  0  0  0  0  0  0  0
    7.2624   -6.1156   16.4388 Br  0  0  0  0  0  0  0  0  0  0  0  0
    9.4752   -4.6897   17.0114 C   0  0  0  0  0  0  0  0  0  0  0  0
    4.6953   -8.3569   16.9006 C   0  0  0  0  0  0  0  0  0  0  0  0
    8.8006   -1.4715   25.1184 C   0  0  0  0  0  0  0  0  0  0  0  0
    9.6324   -4.3973   16.4448 C   0  0  0  0  0  0  0  0  0  0  0  0
    3.5684   -9.9557   17.1830 C   0  0  0  0  0  0  0  0  0  0  0  0
    2.7673   -9.1042   16.8191 C   0  0  0  0  0  0  0  0  0  0  0  0
    0.0583  -11.1532   13.1521 C   0  0  0  0  0  0  0  0  0  0  0  0
    7.8890   -1.8951   26.4363 He  0  0  0  0  0  0  0  0  0  0  0  0
    7.8429   -5.0285   16.6526 He  0  0  0  0  0  0  0  0  0  0  0  0
    8.2131   -9.2651   19.4580 He  0  0  0  0  0  0  0  0  0  0  0  0
    8.9588   -5.5570   17.9395 He  0  0  0  0  0  0  0  0  0  0  0  0
  1  2  4  0
  1  6  3  0
  1 10  3  0
  1 14  1  0
  1 16  4  0
  1 20  3  0
  1 25  1  0
  2  5  3  0
  2  7  1  0
  2 23  3  0
  3  6  1  0
  3 10  1  0
  3 23  3  0
  3 24  1  0
  3 29  1  0
  4  5  4  0
  4  9  4  0
  4 10  4  0
  4 13  4  0
  4 16  2  0
  4 24  1  0
  5  6  1  0
  5  9  1  0
  5 13  3  0
  5 14  1  0
  5 18  2  0
  5 19  1  0
  5 21  3  0
  5 23  1  0
  5 26  4  0
  5 27  1  0
  5 28  2  0
  5 29  3  0
  5 30  3  0
  6  7  3  0
  6  8  1  0
  6  9  1  0
  6 10  4  0
  6 20  4  0
  6 23  1  0
  6 29  4  0
  7 12  2  0
  7 16  2  0
  7 18  2  0
  7 22  2  0
  7 29  4  0
  8 11  4  0
  8 13  2  0
  9 10  3  0
  9 12  3  0
  9 14  3  0
  9 15  3  0
  9 16  1  0
  9 18  4  0
  9 19  3  0
  9 21  4  0
  9 22  3  0
  9 24  2  0
 10 13  4  0
 10 15  4  0
 10 24  1  0
 10 27  1  0
 10 30  2  0
 11 13  1  0
 11 18  2  0
 11 20  4  0
 11 23  2  0
 11 26  2  0
 11 28  2  0
 11 29  1  0
 12 15  4  0
 12 29  1  0
 12 30  4  0
 13 14  3  0
 14 28  4  0
 14 29  4  0
 16 17  1  0
 16 23  4  0
 17 18  1  0
 17 19  1  0
 17 20  2  0
 17 27  4  0
 18 25  4  0
 19 21  4  0
 19 27  4  0
 19 28  4  0
 19 29  1  0
 20 23  1  0
 20 30  2  0
 21 22  3  0
 21 25  2  0
 22 28  4  0
 23 28  2  0
 23 30  2  0
 24 27  1  0
 25 28  4  0
 25 30  4  0
 27 29  4  0
M  END
$$$$

 Created by Python create_sdf_string function

 34 25  0  0  0  0  0  0  0  0999 V2000
    3.8705   -7.7547   15.9184 C   0  0  0  0  0  0  0  0  0  0  0  0
    8.3251   -7.0200   17.8810 C   0  0  0  0  0  0  0  0  0  0  0  0
    0.7602   -9.2250   15.8059 C   0  0  0  0  0  0  0  0  0  0  0  0
    9.3162   -3.2553   26.4201 C   0  0  0  0  0  0  0  0  0  0  0  0
    5.6746   -7.6519   17.7536 O   0  0  0  0  0  0  0  0  0  0  0  0
    8.2686   -2.1142   26.4561 N   0  0  0  0  0  0  0  0  0  0  0  0
    0.2835  -10.2999   15.1085 C   0  0  0  0  0  0  0  0  0  0  0  0
    8.0740   -8.1812   17.5789 C   0  0  0  0  0  0  0  0  0  0  0  0
    9.6569   -1.7122   24.6679 C   0  0  0  0  0  0  0  0  0  0  0  0
    7.2211   -8.4244   15.9218 C   0  0  0  0  0  0  0  0  0  0  0  0
   -0.4645  -11.1656   15.8244 C   0  0  0  0  0  0  0  0  0  0  0  0
    6.3776   -7.5904   16.8440 C   0  0  0  0  0  0  0  0  0  0  0  0
   -1.0119  -12.3925   13.9145 C   0  0  0  0  0  0  0  0  0  0  0  0
   10.0830   -2.9785   25.2920 N   0  0  0  0  0  0  0  0  0  0  0  0
    2.7067   -9.8821   17.1040 C   0  0  0  0  0  0  0  0  0  0  0  0
    8.2274   -5.8169   16.4422 C   0  0  0  0  0  0  0  0  0  0  0  0
   -1.1229  -12.1787   15.2180 C   0  0  0  0  0  0  0  0  0  0  0  0
    2.7090   -8.1189   15.6390 C   0  0  0  0  0  0  0  0  0  0  0  0
   10.1004   -3.7727   16.0662 C   0  0  0  0  0  0  0  0  0  0  0  0
    8.0752   -8.0681   18.5877 C   0  0  0  0  0  0  0  0  0  0  0  0
    9.4695   -5.5567   17.9777 C   0  0  0  0  0  0  0  0  0  0  0  0
    7.0244   -9.3699   16.5855 C   0  0  0  0  0  0  0  0  0  0  0  0
    8.7829   -5.5750   16.7536 C   0  0  0  0  0  0  0  0  0  0  0  0
    0.4333  -10.5013   13.7616 C   0  0  0  0  0  0  0  0  0  0  0  0
    7.4799   -5.3816   15.4139 O   0  0  0  0  0  0  0  0  0  0  0  0
    8.2790   -7.9810   14.9490 C   0  0  0  0  0  0  0  0  0  0  0  0
    7.2740   -6.6668   16.3096 C   0  0  0  0  0  0  0  0  0  0  0  0
   10.2898   -4.3151   17.5554 C   0  0  0  0  0  0  0  0  0  0  0  0
    4.5959   -8.6274   16.7449 C   0  0  0  0  0  0  0  0  0  0  0  0
    8.6961   -1.1683   25.3699 C   0  0  0  0  0  0  0  0  0  0  0  0
    9.8424   -4.0965   16.4284 C   0  0  0  0  0  0  0  0  0  0  0  0
    3.8913   -9.7558   17.3445 C   0  0  0  0  0  0  0  0  0  0  0  0
    2.1464   -9.1075   16.2385 C   0  0  0  0  0  0  0  0  0  0  0  0
   -0.2236  -11.5824   13.1193 C   0  0  0  0  0  0  0  0  0  0  0  0
  1 18  4  0
  1 29  4  0
  2  8  1  0
  3  7  1  0
  3 33  1  0
  4  6  4  0
  4 14  4  0
  6 30  4  0
  7 11  4  0
  7 24  4  0
  9 14  4  0
  9 30  4  0
 10 22  1  0
 10 26  1  0
 11 17  4  0
 13 17  4  0
 13 34  4  0
 15 32  4  0
 15 33  4  0
 18 33  4  0
 19 28  4  0
 19 31  4  0
 21 28  4  0
 24 34  4  0
 29 32  4  0
M  END
$$$$

 Created by Python create_sdf_string function

 34 93  0  0  0  0  0  0  0  0999 V2000
    3.5007   -8.1685   15.3880 C   0  0  0  0  0  0  0  0  0  0  0  0
    0.7343   -9.4511   15.6497 C   0  0  0  0  0  0  0  0  0  0  0  0
    9.4192   -3.4061   25.6155 C   0  0  0  0  0  0  0  0  0  0  0  0
    4.3728   -5.8701   17.5424 C   0  0  0  0  0  0  0  0  0  0  0  0
    8.0831   -2.7649   26.7902 B   0  0  0  0  0  0  0  0  0  0  0  0
   -0.6408  -10.2193   15.1978 F   0  0  0  0  0  0  0  0  0  0  0  0
    8.3988   -8.3337   17.8689 C   0  0  0  0  0  0  0  0  0  0  0  0
    7.8287   -9.1717   15.5603 O   0  0  0  0  0  0  0  0  0  0  0  0
    0.4214  -11.0643   15.9278 C   0  0  0  0  0  0  0  0  0  0  0  0
    9.6648   -2.9241   25.6293 N   0  0  0  0  0  0  0  0  0  0  0  0
    2.4180   -9.3988   17.1908 C   0  0  0  0  0  0  0  0  0  0  0  0
    8.6800   -5.4532   15.8851 N   0  0  0  0  0  0  0  0  0  0  0  0
    3.4721   -8.3417   15.9976 C   0  0  0  0  0  0  0  0  0  0  0  0
    9.9172   -3.7475   16.3855 C   0  0  0  0  0  0  0  0  0  0  0  0
    7.9998   -7.9482   19.3615 F   0  0  0  0  0  0  0  0  0  0  0  0
    8.3501   -5.3476   17.0133 Cl  0  0  0  0  0  0  0  0  0  0  0  0
    6.6294   -9.5517   16.7010 C   0  0  0  0  0  0  0  0  0  0  0  0
    9.1276   -5.0100   16.9528 C   0  0  0  0  0  0  0  0  0  0  0  0
    0.3729  -11.0626   13.5615 C   0  0  0  0  0  0  0  0  0  0  0  0
    7.7753   -4.8538   15.4672 O   0  0  0  0  0  0  0  0  0  0  0  0
    8.4849   -7.8905   16.1906 C   0  0  0  0  0  0  0  0  0  0  0  0
   10.7315   -4.1589   17.3892 C   0  0  0  0  0  0  0  0  0  0  0  0
    4.8659   -8.7690   16.7187 C   0  0  0  0  0  0  0  0  0  0  0  0
    9.9386   -4.1309   15.9593 C   0  0  0  0  0  0  0  0  0  0  0  0
    1.9636   -8.5905   16.2234 C   0  0  0  0  0  0  0  0  0  0  0  0
   -0.1151  -11.2010   12.8416 C   0  0  0  0  0  0  0  0  0  0  0  0
    8.0753   -6.6038   17.4736 He  0  0  0  0  0  0  0  0  0  0  0  0
    9.4140   -1.6492   25.3160 He  0  0  0  0  0  0  0  0  0  0  0  0
    6.4069   -7.8939   16.7552 He  0  0  0  0  0  0  0  0  0  0  0  0
   -0.8123  -12.3489   14.1799 He  0  0  0  0  0  0  0  0  0  0  0  0
   -0.5327  -12.1039   15.2169 He  0  0  0  0  0  0  0  0  0  0  0  0
    7.0086   -6.7095   14.5393 He  0  0  0  0  0  0  0  0  0  0  0  0
    8.4385   -1.1355   25.9190 He  0  0  0  0  0  0  0  0  0  0  0  0
    4.2993   -9.2753   17.0698 He  0  0  0  0  0  0  0  0  0  0  0  0
  1  5  2  0
  1  7  1  0
  1  8  3  0
  1 13  4  0
  1 14  3  0
  1 15  1  0
  1 18  3  0
  1 23  4  0
  1 26  1  0
  2  5  1  0
  2  6  1  0
  2 26  3  0
  3  5  4  0
  3 23  1  0
  4  6  2  0
  4  8  3  0
  4 10  1  0
  4 11  2  0
  4 13  1  0
  4 14  4  0
  4 16  2  0
  4 17  1  0
  4 18  4  0
  4 19  3  0
  4 20  3  0
  4 21  4  0
  4 23  2  0
  4 25  4  0
  4 26  2  0
  5  8  3  0
  5  9  4  0
  5 12  1  0
  5 15  4  0
  5 25  2  0
  6  8  2  0
  6  9  4  0
  6 10  1  0
  6 18  4  0
  6 19  4  0
  6 22  4  0
  6 23  3  0
  6 24  4  0
  7  9  4  0
  7 13  3  0
  7 15  2  0
  7 16  1  0
  8  9  3  0
  8 10  3  0
  8 12  2  0
  8 16  3  0
  8 17  1  0
  8 19  1  0
  8 23  1  0
  8 24  4  0
  8 26  3  0
  9 12  1  0
  9 14  3  0
  9 16  3  0
 10 12  2  0
 10 16  3  0
 10 26  3  0
 11 12  4  0
 11 15  2  0
 11 25  4  0
 12 14  3  0
 12 20  1  0
 12 22  3  0
 13 15  2  0
 13 16  1  0
 13 23  3  0
 13 25  3  0
 13 26  3  0
 14 15  3  0
 14 18  2  0
 14 24  3  0
 15 19  1  0
 15 25  1  0
 16 17  3  0
 16 18  2  0
 16 19  3  0
 16 20  3  0
 17 19  4  0
 17 21  3  0
 17 26  4  0
 18 20  4  0
 18 21  4  0
 18 22  2  0
 18 23  2  0
 19 22  2  0
 19 26  3  0
 21 25  3  0
 22 26  2  0
 23 25  4  0
M  END
$$$$

 Created by Python create_sdf_string function

 34 33  0  0  0  0  0  0  0  0999 V2000
    3.8076   -7.8409   15.6377 C   0  0  0  0  0  0  0  0  0  0  0  0
    8.0675   -6.8816   17.6686 C   0  0  0  0  0  0  0  0  0  0  0  0
    0.7134   -8.9677   15.7131 C   0  0  0  0  0  0  0  0  0  0  0  0
    9.2269   -3.6498   26.0419 C   0  0  0  0  0  0  0  0  0  0  0  0
    6.0461   -6.9732   16.8952 C   0  0  0  0  0  0  0  0  0  0  0  0
    8.1204   -2.7814   26.5346 N   0  0  0  0  0  0  0  0  0  0  0  0
    0.1719  -10.0960   15.0764 C   0  0  0  0  0  0  0  0  0  0  0  0
    8.3997   -8.1700   17.8357 C   0  0  0  0  0  0  0  0  0  0  0  0
    9.4772   -1.4633   25.0958 N   0  0  0  0  0  0  0  0  0  0  0  0
    7.6450   -8.9422   15.6694 O   0  0  0  0  0  0  0  0  0  0  0  0
   -0.2434  -11.0373   15.9136 C   0  0  0  0  0  0  0  0  0  0  0  0
    6.2168   -8.0656   16.5639 C   0  0  0  0  0  0  0  0  0  0  0  0
   -0.8713  -12.2817   14.0201 C   0  0  0  0  0  0  0  0  0  0  0  0
    9.9151   -2.8241   25.2319 N   0  0  0  0  0  0  0  0  0  0  0  0
    2.6656   -9.6102   17.1512 C   0  0  0  0  0  0  0  0  0  0  0  0
    8.7183   -5.0367   15.9397 C   0  0  0  0  0  0  0  0  0  0  0  0
   -0.9272  -12.1414   15.3717 C   0  0  0  0  0  0  0  0  0  0  0  0
    2.7233   -8.0367   15.4373 C   0  0  0  0  0  0  0  0  0  0  0  0
   10.4377   -3.7166   16.4159 C   0  0  0  0  0  0  0  0  0  0  0  0
    7.9012   -7.8922   18.4063 O   0  0  0  0  0  0  0  0  0  0  0  0
    8.7147   -5.8212   16.9658 C   0  0  0  0  0  0  0  0  0  0  0  0
    6.6927   -9.4718   16.6875 C   0  0  0  0  0  0  0  0  0  0  0  0
    9.5449   -5.1631   17.6384 C   0  0  0  0  0  0  0  0  0  0  0  0
    0.2398  -10.2748   13.6664 C   0  0  0  0  0  0  0  0  0  0  0  0
    7.6223   -5.0989   15.2662 O   0  0  0  0  0  0  0  0  0  0  0  0
    8.4822   -8.1388   15.7886 C   0  0  0  0  0  0  0  0  0  0  0  0
    7.0176   -6.7986   15.3714 C   0  0  0  0  0  0  0  0  0  0  0  0
   10.5080   -4.0893   17.5279 C   0  0  0  0  0  0  0  0  0  0  0  0
    4.5834   -8.6475   16.5362 C   0  0  0  0  0  0  0  0  0  0  0  0
    8.3982   -1.3312   25.9568 N   0  0  0  0  0  0  0  0  0  0  0  0
    9.9667   -3.8073   15.7842 C   0  0  0  0  0  0  0  0  0  0  0  0
    3.9332   -9.5767   17.3286 C   0  0  0  0  0  0  0  0  0  0  0  0
    1.9764   -8.8733   16.1804 C   0  0  0  0  0  0  0  0  0  0  0  0
   -0.2928  -11.4511   13.1788 C   0  0  0  0  0  0  0  0  0  0  0  0
  1 18  4  0
  1 29  4  0
  2  8  1  0
  2 20  1  0
  2 21  1  0
  3  7  1  0
  3 33  1  0
  4  6  4  0
  4 14  4  0
  6 30  4  0
  7 11  4  0
  7 24  4  0
  8 20  2  0
  9 14  4  0
  9 30  4  0
 10 22  1  0
 10 26  1  0
 11 17  4  0
 12 22  1  0
 13 17  4  0
 13 34  4  0
 15 32  4  0
 15 33  4  0
 16 21  4  0
 16 25  1  0
 16 31  4  0
 18 33  4  0
 19 28  4  0
 19 31  4  0
 21 23  4  0
 23 28  4  0
 24 34  4  0
 29 32  4  0
M  END
$$$$

 Created by Python create_sdf_string function

 34 93  0  0  0  0  0  0  0  0999 V2000
    4.0680   -7.1879   15.8131 C   0  0  0  0  0  0  0  0  0  0  0  0
    7.8204   -6.7637   17.6680 C   0  0  0  0  0  0  0  0  0  0  0  0
    1.2138   -9.0285   15.9437 C   0  0  0  0  0  0  0  0  0  0  0  0
    9.3060   -3.8656   25.8426 C   0  0  0  0  0  0  0  0  0  0  0  0
    7.6318   -7.3034   16.4578 C   0  0  0  0  0  0  0  0  0  0  0  0
    7.8424   -2.3525   26.6244 N   0  0  0  0  0  0  0  0  0  0  0  0
   -0.0511  -10.6528   14.8398 C   0  0  0  0  0  0  0  0  0  0  0  0
    9.5503   -1.8616   25.0983 N   0  0  0  0  0  0  0  0  0  0  0  0
    8.5761   -9.3557   16.0865 Cl  0  0  0  0  0  0  0  0  0  0  0  0
   -0.0887  -11.0259   15.4701 F   0  0  0  0  0  0  0  0  0  0  0  0
    6.2051   -7.9039   16.8915 N   0  0  0  0  0  0  0  0  0  0  0  0
   -0.8766  -12.0408   14.0001 C   0  0  0  0  0  0  0  0  0  0  0  0
    2.6921   -9.3875   17.0612 C   0  0  0  0  0  0  0  0  0  0  0  0
    8.7671   -6.6167   14.6092 P   0  0  0  0  0  0  0  0  0  0  0  0
   -0.5392  -11.9544   15.9636 C   0  0  0  0  0  0  0  0  0  0  0  0
    2.8861   -7.7422   15.8223 C   0  0  0  0  0  0  0  0  0  0  0  0
   10.1528   -4.0198   16.6594 C   0  0  0  0  0  0  0  0  0  0  0  0
    7.7960   -5.8365   17.3913 F   0  0  0  0  0  0  0  0  0  0  0  0
    6.4332   -9.5130   16.7125 N   0  0  0  0  0  0  0  0  0  0  0  0
    9.4759   -5.0010   17.4903 C   0  0  0  0  0  0  0  0  0  0  0  0
    0.7320  -10.8156   13.8739 C   0  0  0  0  0  0  0  0  0  0  0  0
    7.5093   -5.7325   15.2287 O   0  0  0  0  0  0  0  0  0  0  0  0
    8.7369   -7.7803   15.3455 C   0  0  0  0  0  0  0  0  0  0  0  0
    5.4696   -7.9568   15.4978 N   0  0  0  0  0  0  0  0  0  0  0  0
   10.7275   -4.3069   17.8391 O   0  0  0  0  0  0  0  0  0  0  0  0
    4.1009   -8.5404   17.1006 F   0  0  0  0  0  0  0  0  0  0  0  0
    8.3993   -1.2535   25.5862 N   0  0  0  0  0  0  0  0  0  0  0  0
   10.0387   -3.9965   15.7208 C   0  0  0  0  0  0  0  0  0  0  0  0
   -0.6370  -11.5966   12.5696 C   0  0  0  0  0  0  0  0  0  0  0  0
    9.0617   -8.2590   17.7703 He  0  0  0  0  0  0  0  0  0  0  0  0
    9.8790   -3.3319   25.4320 He  0  0  0  0  0  0  0  0  0  0  0  0
    7.3689   -8.7622   18.2091 He  0  0  0  0  0  0  0  0  0  0  0  0
    3.9659   -9.8622   17.5398 He  0  0  0  0  0  0  0  0  0  0  0  0
    1.4103   -8.9307   16.4954 He  0  0  0  0  0  0  0  0  0  0  0  0
  1  9  1  0
  1 11  4  0
  1 16  4  0
  1 20  3  0
  1 24  2  0
  1 26  4  0
  1 29  4  0
  2 11  3  0
  2 16  1  0
  2 18  3  0
  2 25  3  0
  3  7  1  0
  3 11  4  0
  3 16  1  0
  3 18  2  0
  3 27  2  0
  4  6  4  0
  4  9  2  0
  4 11  1  0
  4 14  3  0
  4 24  4  0
  5  6  4  0
  5 10  1  0
  5 11  1  0
  5 12  1  0
  5 16  3  0
  5 23  2  0
  6  9  4  0
  6 15  1  0
  7 10  4  0
  7 11  4  0
  7 13  2  0
  7 14  2  0
  7 21  4  0
  8 11  3  0
  8 14  1  0
  8 15  4  0
  8 27  3  0
  9 10  1  0
  9 13  4  0
  9 16  3  0
  9 18  1  0
 10 15  4  0
 10 16  2  0
 10 21  2  0
 11 12  4  0
 11 13  2  0
 11 14  3  0
 11 18  3  0
 11 22  4  0
 11 24  3  0
 11 25  3  0
 11 29  4  0
 12 14  4  0
 12 18  4  0
 12 21  2  0
 12 24  2  0
 13 14  4  0
 13 15  1  0
 13 18  3  0
 13 29  4  0
 14 19  3  0
 14 23  1  0
 14 26  2  0
 14 27  4  0
 15 18  3  0
 15 19  1  0
 15 20  2  0
 15 26  3  0
 16 19  4  0
 16 22  2  0
 16 25  3  0
 17 20  3  0
 17 24  3  0
 17 25  4  0
 18 19  2  0
 18 21  1  0
 18 22  3  0
 18 27  2  0
 18 28  2  0
 19 24  4  0
 19 27  2  0
 19 29  2  0
 20 21  2  0
 20 25  4  0
 21 25  4  0
 21 27  4  0
 21 29  4  0
 22 23  2  0
 23 24  3  0
 24 25  3  0
 24 27  2  0
 24 29  1  0
M  END
$$$$

 Created by Python create_sdf_string function

 34 29  0  0  0  0  0  0  0  0999 V2000
    3.8151   -7.6640   16.0443 C   0  0  0  0  0  0  0  0  0  0  0  0
    8.0129   -6.9731   17.8145 C   0  0  0  0  0  0  0  0  0  0  0  0
    0.9637   -8.9543   15.5094 C   0  0  0  0  0  0  0  0  0  0  0  0
    8.9506   -3.6320   26.1765 C   0  0  0  0  0  0  0  0  0  0  0  0
    7.4817   -7.3205   16.1070 C   0  0  0  0  0  0  0  0  0  0  0  0
    7.9924   -2.5305   26.4178 N   0  0  0  0  0  0  0  0  0  0  0  0
    0.3135  -10.1916   15.0132 C   0  0  0  0  0  0  0  0  0  0  0  0
    8.8996   -8.1362   17.8510 C   0  0  0  0  0  0  0  0  0  0  0  0
    9.5802   -1.7634   24.9440 N   0  0  0  0  0  0  0  0  0  0  0  0
    8.1072   -8.7476   16.0296 C   0  0  0  0  0  0  0  0  0  0  0  0
   -0.2734  -11.1002   15.8491 N   0  0  0  0  0  0  0  0  0  0  0  0
    6.4445   -7.8066   16.9381 C   0  0  0  0  0  0  0  0  0  0  0  0
   -1.0237  -12.2973   13.9459 C   0  0  0  0  0  0  0  0  0  0  0  0
    9.8904   -3.1512   25.2827 N   0  0  0  0  0  0  0  0  0  0  0  0
    2.5369   -9.6850   17.1347 C   0  0  0  0  0  0  0  0  0  0  0  0
    8.8443   -5.6514   15.7492 C   0  0  0  0  0  0  0  0  0  0  0  0
   -0.9633  -12.1530   15.2960 C   0  0  0  0  0  0  0  0  0  0  0  0
    2.5589   -7.8302   15.7423 C   0  0  0  0  0  0  0  0  0  0  0  0
   10.4474   -3.7803   16.4756 C   0  0  0  0  0  0  0  0  0  0  0  0
    7.0665   -8.4268   17.8435 C   0  0  0  0  0  0  0  0  0  0  0  0
    8.8906   -5.8295   17.0813 C   0  0  0  0  0  0  0  0  0  0  0  0
    6.2691   -9.5180   16.9677 N   0  0  0  0  0  0  0  0  0  0  0  0
    9.5740   -5.1577   17.9991 C   0  0  0  0  0  0  0  0  0  0  0  0
    0.3398  -10.4134   13.6676 C   0  0  0  0  0  0  0  0  0  0  0  0
    7.2699   -5.5754   15.1087 O   0  0  0  0  0  0  0  0  0  0  0  0
    8.6095   -7.7207   15.0363 C   0  0  0  0  0  0  0  0  0  0  0  0
    6.1599   -8.2999   16.0709 C   0  0  0  0  0  0  0  0  0  0  0  0
   10.4428   -4.1131   17.6749 C   0  0  0  0  0  0  0  0  0  0  0  0
    4.4797   -8.6349   16.7666 C   0  0  0  0  0  0  0  0  0  0  0  0
    8.4308   -1.3355   25.6436 N   0  0  0  0  0  0  0  0  0  0  0  0
    9.7624   -4.1840   15.6153 C   0  0  0  0  0  0  0  0  0  0  0  0
    3.8006   -9.5967   17.4168 C   0  0  0  0  0  0  0  0  0  0  0  0
    1.9299   -8.8820   16.1512 C   0  0  0  0  0  0  0  0  0  0  0  0
   -0.4119  -11.5194   13.1278 C   0  0  0  0  0  0  0  0  0  0  0  0
  1 18  4  0
  1 29  4  0
  2  8  1  0
  2 21  1  0
  3  7  1  0
  3 33  1  0
  4  6  4  0
  4 14  4  0
  5 12  1  0
  6 30  4  0
  7 11  4  0
  7 24  4  0
  9 14  4  0
  9 30  4  0
 10 26  1  0
 11 17  4  0
 13 17  4  0
 13 34  4  0
 15 32  4  0
 15 33  4  0
 16 21  4  0
 16 31  4  0
 18 33  4  0
 19 28  4  0
 19 31  4  0
 21 23  4  0
 23 28  4  0
 24 34  4  0
 29 32  4  0
M  END
$$$$

 Created by Python create_sdf_string function

 34105  0  0  0  0  0  0  0  0999 V2000
    3.9595   -8.1729   16.1223 C   0  0  0  0  0  0  0  0  0  0  0  0
    8.2288   -7.0033   16.9637 C   0  0  0  0  0  0  0  0  0  0  0  0
    0.8905   -9.4802   15.7497 F   0  0  0  0  0  0  0  0  0  0  0  0
    8.6183   -8.5057   17.8811 F   0  0  0  0  0  0  0  0  0  0  0  0
    8.4443   -2.7265   26.9367 N   0  0  0  0  0  0  0  0  0  0  0  0
    0.7720  -10.4747   15.1591 C   0  0  0  0  0  0  0  0  0  0  0  0
    9.0211   -8.4045   18.0143 C   0  0  0  0  0  0  0  0  0  0  0  0
    0.0825  -11.2148   15.9205 N   0  0  0  0  0  0  0  0  0  0  0  0
    7.3096   -7.8973   16.5283 O   0  0  0  0  0  0  0  0  0  0  0  0
   -0.9070  -12.5667   13.6910 C   0  0  0  0  0  0  0  0  0  0  0  0
    2.9217  -10.4569   16.1239 C   0  0  0  0  0  0  0  0  0  0  0  0
    8.5339   -5.5119   15.3352 O   0  0  0  0  0  0  0  0  0  0  0  0
   -0.9905  -12.1793   15.5146 C   0  0  0  0  0  0  0  0  0  0  0  0
    2.5544   -7.4804   15.4176 N   0  0  0  0  0  0  0  0  0  0  0  0
   11.1851   -3.7123   17.0001 C   0  0  0  0  0  0  0  0  0  0  0  0
    7.4492   -9.2939   17.6622 C   0  0  0  0  0  0  0  0  0  0  0  0
    9.8042   -5.2520   17.9445 N   0  0  0  0  0  0  0  0  0  0  0  0
    9.6106   -5.1472   17.8877 C   0  0  0  0  0  0  0  0  0  0  0  0
   -0.2175  -10.6464   13.1720 C   0  0  0  0  0  0  0  0  0  0  0  0
    6.6124   -5.1708   15.0366 O   0  0  0  0  0  0  0  0  0  0  0  0
    8.7460   -7.3288   15.4044 C   0  0  0  0  0  0  0  0  0  0  0  0
    5.9685   -9.8004   16.9869 B   0  0  0  0  0  0  0  0  0  0  0  0
   10.8420   -4.0436   17.9071 C   0  0  0  0  0  0  0  0  0  0  0  0
    8.9171   -1.1371   25.5594 N   0  0  0  0  0  0  0  0  0  0  0  0
   10.4959   -4.8289   15.4152 C   0  0  0  0  0  0  0  0  0  0  0  0
    3.0218   -9.9547   17.9336 C   0  0  0  0  0  0  0  0  0  0  0  0
    1.8492   -8.5504   15.5568 C   0  0  0  0  0  0  0  0  0  0  0  0
   -0.7584  -11.4986   13.7568 C   0  0  0  0  0  0  0  0  0  0  0  0
    8.3115   -4.1564   26.8086 He  0  0  0  0  0  0  0  0  0  0  0  0
   10.0341   -1.8791   25.0888 He  0  0  0  0  0  0  0  0  0  0  0  0
    8.2226   -7.9724   16.6107 He  0  0  0  0  0  0  0  0  0  0  0  0
   10.2206   -2.4081   24.9153 He  0  0  0  0  0  0  0  0  0  0  0  0
    6.2545   -9.5854   16.1618 He  0  0  0  0  0  0  0  0  0  0  0  0
    4.5620   -8.8504   16.7410 He  0  0  0  0  0  0  0  0  0  0  0  0
  1  9  2  0
  1 14  4  0
  1 17  4  0
  1 18  3  0
  1 20  3  0
  1 22  2  0
  1 26  3  0
  2  7  2  0
  2  9  3  0
  2 16  2  0
  2 21  4  0
  2 22  4  0
  2 26  3  0
  2 27  4  0
  3  4  3  0
  3  6  1  0
  3  9  3  0
  3 17  1  0
  3 22  3  0
  4  9  4  0
  4 10  1  0
  4 14  1  0
  4 15  3  0
  4 18  1  0
  4 21  3  0
  4 22  2  0
  4 24  1  0
  4 25  2  0
  5 10  3  0
  5 12  1  0
  5 19  2  0
  5 21  2  0
  5 22  2  0
  6  8  4  0
  6 14  3  0
  6 17  2  0
  6 18  1  0
  6 19  4  0
  6 26  2  0
  7  8  2  0
  7  9  4  0
  7 10  3  0
  7 15  3  0
  8  9  4  0
  8 13  4  0
  8 15  4  0
  8 18  4  0
  8 19  4  0
  8 23  2  0
  9 20  3  0
  9 22  2  0
  9 24  4  0
  9 26  4  0
  9 27  4  0
  9 28  1  0
 10 17  2  0
 10 22  1  0
 10 25  3  0
 10 26  2  0
 10 28  4  0
 11 17  2  0
 11 20  1  0
 11 23  1  0
 11 26  4  0
 12 13  1  0
 12 17  4  0
 12 18  4  0
 12 24  3  0
 12 26  1  0
 12 27  4  0
 12 28  4  0
 13 14  1  0
 13 16  4  0
 13 17  3  0
 13 19  3  0
 14 18  4  0
 14 26  2  0
 14 27  4  0
 15 17  4  0
 15 20  3  0
 15 23  4  0
 15 26  3  0
 16 18  1  0
 16 20  2  0
 16 23  2  0
 16 24  2  0
 16 25  1  0
 16 26  3  0
 17 23  1  0
 17 24  4  0
 17 26  2  0
 17 27  2  0
 17 28  1  0
 18 21  2  0
 18 23  4  0
 18 25  2  0
 19 28  2  0
 20 23  4  0
 20 26  1  0
 22 24  2  0
 22 28  3  0
 23 24  3  0
 23 28  4  0
 24 26  3  0
 27 28  4  0
M  END
$$$$

 Created by Python create_sdf_string function

 34 31  0  0  0  0  0  0  0  0999 V2000
    3.9169   -7.9116   15.9809 C   0  0  0  0  0  0  0  0  0  0  0  0
    8.4382   -6.6755   16.4382 C   0  0  0  0  0  0  0  0  0  0  0  0
    0.6840   -9.0552   15.2572 O   0  0  0  0  0  0  0  0  0  0  0  0
    8.8111   -3.6859   26.3049 C   0  0  0  0  0  0  0  0  0  0  0  0
    8.5829   -8.0865   17.9277 C   0  0  0  0  0  0  0  0  0  0  0  0
    8.3382   -2.6828   26.6109 N   0  0  0  0  0  0  0  0  0  0  0  0
    0.2017  -10.2483   14.9651 C   0  0  0  0  0  0  0  0  0  0  0  0
    9.0070   -8.1229   18.1204 C   0  0  0  0  0  0  0  0  0  0  0  0
    9.7736   -2.0130   25.0506 N   0  0  0  0  0  0  0  0  0  0  0  0
    7.9384   -8.1093   16.8812 C   0  0  0  0  0  0  0  0  0  0  0  0
   -0.1827  -11.1903   15.8668 N   0  0  0  0  0  0  0  0  0  0  0  0
    7.3147   -7.6285   16.5368 C   0  0  0  0  0  0  0  0  0  0  0  0
   -1.1945  -12.3902   14.1138 C   0  0  0  0  0  0  0  0  0  0  0  0
    9.8473   -3.1313   25.1640 N   0  0  0  0  0  0  0  0  0  0  0  0
    2.3311   -9.8181   16.8219 C   0  0  0  0  0  0  0  0  0  0  0  0
    9.3311   -5.0765   16.2996 C   0  0  0  0  0  0  0  0  0  0  0  0
   -0.9676  -12.2998   15.4380 C   0  0  0  0  0  0  0  0  0  0  0  0
    2.6898   -7.8647   15.4701 C   0  0  0  0  0  0  0  0  0  0  0  0
   11.0732   -3.5743   16.7287 C   0  0  0  0  0  0  0  0  0  0  0  0
    7.1384   -8.8818   17.1469 C   0  0  0  0  0  0  0  0  0  0  0  0
    9.6100   -5.3273   17.7179 C   0  0  0  0  0  0  0  0  0  0  0  0
    6.2232   -9.7332   16.4934 O   0  0  0  0  0  0  0  0  0  0  0  0
    9.9150   -4.9698   18.1343 C   0  0  0  0  0  0  0  0  0  0  0  0
    0.0463  -10.4371   13.7064 C   0  0  0  0  0  0  0  0  0  0  0  0
    6.9579   -5.4887   15.3270 O   0  0  0  0  0  0  0  0  0  0  0  0
    8.3335   -7.2189   15.3274 C   0  0  0  0  0  0  0  0  0  0  0  0
    5.8205   -9.5360   17.1478 C   0  0  0  0  0  0  0  0  0  0  0  0
   10.7857   -3.8169   17.9394 C   0  0  0  0  0  0  0  0  0  0  0  0
    4.3321   -9.0345   16.6877 C   0  0  0  0  0  0  0  0  0  0  0  0
    8.7859   -1.4997   25.6940 N   0  0  0  0  0  0  0  0  0  0  0  0
   10.2886   -4.2705   15.8186 C   0  0  0  0  0  0  0  0  0  0  0  0
    3.5088   -9.9216   17.2509 C   0  0  0  0  0  0  0  0  0  0  0  0
    1.8950   -8.9248   15.7974 C   0  0  0  0  0  0  0  0  0  0  0  0
   -0.7062  -11.5280   13.2908 C   0  0  0  0  0  0  0  0  0  0  0  0
  1 18  4  0
  1 29  4  0
  2 26  4  0
  3  7  1  0
  3 33  1  0
  4  6  4  0
  4 14  4  0
  5  8  4  0
  6 30  4  0
  7 11  4  0
  7 24  4  0
  8 10  4  0
  9 14  4  0
  9 30  4  0
 10 20  4  0
 11 17  4  0
 13 17  4  0
 13 34  4  0
 15 32  4  0
 15 33  4  0
 16 21  4  0
 16 31  4  0
 18 33  4  0
 19 28  4  0
 19 31  4  0
 21 23  4  0
 22 27  1  0
 23 28  4  0
 24 34  4  0
 27 29  1  0
 29 32  4  0
M  END
$$$$

 Created by Python create_sdf_string function

 34 67  0  0  0  0  0  0  0  0999 V2000
    0.5734   -8.5121   15.2498 O   0  0  0  0  0  0  0  0  0  0  0  0
    8.4209   -4.3303   26.4954 C   0  0  0  0  0  0  0  0  0  0  0  0
    9.1225   -8.1491   16.9170 Cl  0  0  0  0  0  0  0  0  0  0  0  0
    8.9065   -2.6462   26.9123 N   0  0  0  0  0  0  0  0  0  0  0  0
   -0.1870  -10.2892   14.7154 C   0  0  0  0  0  0  0  0  0  0  0  0
    9.2532   -8.1894   18.1496 C   0  0  0  0  0  0  0  0  0  0  0  0
    9.8707   -2.1717   25.0086 N   0  0  0  0  0  0  0  0  0  0  0  0
    8.5227   -7.5883   15.4983 C   0  0  0  0  0  0  0  0  0  0  0  0
   -0.9171  -12.2642   14.0940 C   0  0  0  0  0  0  0  0  0  0  0  0
    9.9404   -2.5933   25.4881 N   0  0  0  0  0  0  0  0  0  0  0  0
    2.3441   -9.2408   16.5957 S   0  0  0  0  0  0  0  0  0  0  0  0
   -1.4712  -12.6336   15.3920 C   0  0  0  0  0  0  0  0  0  0  0  0
    2.7313   -8.4327   15.5756 C   0  0  0  0  0  0  0  0  0  0  0  0
   11.4405   -4.0869   17.1345 C   0  0  0  0  0  0  0  0  0  0  0  0
    7.6284   -8.0941   16.9323 F   0  0  0  0  0  0  0  0  0  0  0  0
    8.5605   -6.6253   16.7509 O   0  0  0  0  0  0  0  0  0  0  0  0
   -0.1111  -10.9043   13.3592 C   0  0  0  0  0  0  0  0  0  0  0  0
    7.0428   -5.5648   15.6036 O   0  0  0  0  0  0  0  0  0  0  0  0
    8.0302   -7.4191   15.0857 N   0  0  0  0  0  0  0  0  0  0  0  0
   11.1841   -3.7542   17.8950 C   0  0  0  0  0  0  0  0  0  0  0  0
    4.4050   -9.3833   16.7770 C   0  0  0  0  0  0  0  0  0  0  0  0
    8.9678   -1.1999   25.4776 N   0  0  0  0  0  0  0  0  0  0  0  0
   10.5721   -3.9446   16.5385 C   0  0  0  0  0  0  0  0  0  0  0  0
   -1.0150  -11.5099   13.4862 N   0  0  0  0  0  0  0  0  0  0  0  0
    3.8328   -8.0217   15.9067 He  0  0  0  0  0  0  0  0  0  0  0  0
    8.4539   -6.7603   16.7201 He  0  0  0  0  0  0  0  0  0  0  0  0
    8.5709   -8.0441   15.9371 He  0  0  0  0  0  0  0  0  0  0  0  0
   -0.0724  -11.0459   15.4493 He  0  0  0  0  0  0  0  0  0  0  0  0
    8.5252   -4.5880   17.2757 He  0  0  0  0  0  0  0  0  0  0  0  0
    6.1322   -9.3858   16.5653 He  0  0  0  0  0  0  0  0  0  0  0  0
    9.9758   -5.0681   18.0533 He  0  0  0  0  0  0  0  0  0  0  0  0
    5.3872   -9.0953   17.2335 He  0  0  0  0  0  0  0  0  0  0  0  0
    3.1239   -9.5480   17.5337 He  0  0  0  0  0  0  0  0  0  0  0  0
    1.6138   -8.9154   16.2593 He  0  0  0  0  0  0  0  0  0  0  0  0
  1  3  3  0
  1  5  4  0
  1 23  1  0
  1 24  1  0
  2  4  4  0
  2  8  4  0
  2 10  3  0
  2 12  2  0
  2 15  2  0
  2 23  2  0
  3  4  1  0
  3  5  3  0
  3  8  3  0
  3  9  2  0
  3 10  4  0
  3 13  1  0
  3 14  2  0
  3 17  4  0
  3 23  3  0
  4  5  3  0
  4 14  3  0
  4 17  4  0
  5 15  1  0
  5 16  3  0
  5 19  2  0
  6  8  1  0
  6 23  4  0
  7  9  4  0
  7 16  3  0
  7 22  1  0
  8  9  2  0
  8 11  1  0
  8 14  1  0
  8 23  1  0
  9 12  4  0
  9 16  4  0
  9 24  4  0
 10 14  2  0
 10 15  4  0
 10 16  3  0
 10 18  2  0
 10 20  2  0
 11 13  2  0
 11 19  4  0
 12 15  2  0
 13 15  2  0
 13 18  3  0
 13 19  2  0
 13 24  4  0
 14 19  4  0
 14 20  4  0
 14 23  4  0
 15 16  2  0
 15 18  2  0
 15 19  1  0
 15 20  2  0
 15 24  2  0
 16 19  3  0
 16 20  3  0
 16 22  2  0
 16 23  1  0
 16 24  2  0
 17 24  1  0
 18 19  2  0
 18 24  3  0
 19 21  1  0
 20 24  4  0
M  END
$$$$

 Created by Python create_sdf_string function

 34 29  0  0  0  0  0  0  0  0999 V2000
    3.8674   -8.1930   15.8496 C   0  0  0  0  0  0  0  0  0  0  0  0
    8.6088   -6.3500   16.8681 C   0  0  0  0  0  0  0  0  0  0  0  0
    0.4862   -8.8267   15.1862 O   0  0  0  0  0  0  0  0  0  0  0  0
    8.9366   -3.7578   26.3234 C   0  0  0  0  0  0  0  0  0  0  0  0
    8.6181   -7.9006   17.3698 C   0  0  0  0  0  0  0  0  0  0  0  0
    8.5250   -2.5270   26.6296 N   0  0  0  0  0  0  0  0  0  0  0  0
    0.0294  -10.2126   14.8397 C   0  0  0  0  0  0  0  0  0  0  0  0
    9.2823   -8.0662   18.2605 C   0  0  0  0  0  0  0  0  0  0  0  0
    9.7430   -2.0892   24.8994 N   0  0  0  0  0  0  0  0  0  0  0  0
    8.0801   -8.1942   16.2547 C   0  0  0  0  0  0  0  0  0  0  0  0
   -0.3858  -11.1576   15.6699 C   0  0  0  0  0  0  0  0  0  0  0  0
    8.0457   -7.7060   15.6410 C   0  0  0  0  0  0  0  0  0  0  0  0
   -1.3219  -12.4748   14.0764 C   0  0  0  0  0  0  0  0  0  0  0  0
    9.9215   -3.3521   25.3726 N   0  0  0  0  0  0  0  0  0  0  0  0
    2.0677   -9.6778   16.9547 C   0  0  0  0  0  0  0  0  0  0  0  0
    9.2245   -4.9763   16.5105 C   0  0  0  0  0  0  0  0  0  0  0  0
   -1.1132  -12.2992   15.3086 C   0  0  0  0  0  0  0  0  0  0  0  0
    2.6489   -8.2291   15.4309 C   0  0  0  0  0  0  0  0  0  0  0  0
   11.1619   -3.5552   17.0544 C   0  0  0  0  0  0  0  0  0  0  0  0
    7.2182   -8.2718   16.9731 C   0  0  0  0  0  0  0  0  0  0  0  0
    8.7178   -5.9901   16.5616 C   0  0  0  0  0  0  0  0  0  0  0  0
    6.2922   -9.3154   16.8020 C   0  0  0  0  0  0  0  0  0  0  0  0
   10.0730   -4.9519   18.4890 C   0  0  0  0  0  0  0  0  0  0  0  0
   -0.2095  -10.5363   13.5295 C   0  0  0  0  0  0  0  0  0  0  0  0
    6.9551   -5.5472   15.3925 O   0  0  0  0  0  0  0  0  0  0  0  0
    7.5464   -7.3525   15.3837 N   0  0  0  0  0  0  0  0  0  0  0  0
    5.4872   -9.1047   17.4273 C   0  0  0  0  0  0  0  0  0  0  0  0
   10.9546   -3.9412   18.2167 C   0  0  0  0  0  0  0  0  0  0  0  0
    4.2757   -9.0169   16.9659 C   0  0  0  0  0  0  0  0  0  0  0  0
    8.8755   -1.4550   25.6351 N   0  0  0  0  0  0  0  0  0  0  0  0
   10.5547   -3.8997   16.1176 C   0  0  0  0  0  0  0  0  0  0  0  0
    3.2897   -9.6903   17.5085 C   0  0  0  0  0  0  0  0  0  0  0  0
    1.6577   -9.0146   15.8242 C   0  0  0  0  0  0  0  0  0  0  0  0
   -0.8816  -11.6340   13.1709 C   0  0  0  0  0  0  0  0  0  0  0  0
  1 18  4  0
  1 29  4  0
  2 21  1  0
  3  7  1  0
  3 33  1  0
  4  6  4  0
  4 14  4  0
  5  8  1  0
  6 30  4  0
  7 11  4  0
  7 24  4  0
  9 14  4  0
  9 30  4  0
 11 17  4  0
 12 26  1  0
 13 17  4  0
 13 34  4  0
 15 32  4  0
 15 33  4  0
 16 21  4  0
 16 31  4  0
 18 33  4  0
 19 28  4  0
 19 31  4  0
 22 27  1  0
 23 28  4  0
 24 34  4  0
 27 29  1  0
 29 32  4  0
M  END
$$$$

 Created by Python create_sdf_string function

 34109  0  0  0  0  0  0  0  0999 V2000
    3.4962   -7.4401   15.5620 C   0  0  0  0  0  0  0  0  0  0  0  0
    8.1393   -6.3932   16.9178 O   0  0  0  0  0  0  0  0  0  0  0  0
    0.6659   -9.2037   15.2202 O   0  0  0  0  0  0  0  0  0  0  0  0
    9.6807   -3.7956   27.0374 C   0  0  0  0  0  0  0  0  0  0  0  0
    9.6012   -7.4542   16.5667 S   0  0  0  0  0  0  0  0  0  0  0  0
    8.5256   -2.3901   26.8946 N   0  0  0  0  0  0  0  0  0  0  0  0
    8.8249   -7.8131   18.1927 C   0  0  0  0  0  0  0  0  0  0  0  0
    9.7697   -1.7701   24.7427 N   0  0  0  0  0  0  0  0  0  0  0  0
    0.0616  -10.8894   15.6749 Cl  0  0  0  0  0  0  0  0  0  0  0  0
    6.5914   -7.4514   14.0276 F   0  0  0  0  0  0  0  0  0  0  0  0
   10.2300   -2.7114   25.6397 N   0  0  0  0  0  0  0  0  0  0  0  0
    2.4113   -9.1771   17.1805 C   0  0  0  0  0  0  0  0  0  0  0  0
    9.1137   -6.7850   16.0009 P   0  0  0  0  0  0  0  0  0  0  0  0
   -0.7741  -12.4170   14.7593 C   0  0  0  0  0  0  0  0  0  0  0  0
    2.4728   -8.0128   15.4955 C   0  0  0  0  0  0  0  0  0  0  0  0
   11.2408   -3.5288   17.6413 C   0  0  0  0  0  0  0  0  0  0  0  0
    6.1127   -8.6204   17.8087 N   0  0  0  0  0  0  0  0  0  0  0  0
    8.5990   -6.9109   16.4541 F   0  0  0  0  0  0  0  0  0  0  0  0
    6.6579   -8.7468   16.6670 C   0  0  0  0  0  0  0  0  0  0  0  0
   10.5511   -5.1084   18.5717 C   0  0  0  0  0  0  0  0  0  0  0  0
   -0.4122  -10.4453   12.9043 C   0  0  0  0  0  0  0  0  0  0  0  0
    6.5868   -4.9258   15.9718 O   0  0  0  0  0  0  0  0  0  0  0  0
    7.6917   -7.4869   15.1180 N   0  0  0  0  0  0  0  0  0  0  0  0
   11.2204   -3.9867   18.1331 C   0  0  0  0  0  0  0  0  0  0  0  0
    4.0929   -8.7661   16.9577 C   0  0  0  0  0  0  0  0  0  0  0  0
    9.3202   -1.2315   26.3532 F   0  0  0  0  0  0  0  0  0  0  0  0
   10.1886   -3.6027   16.4019 C   0  0  0  0  0  0  0  0  0  0  0  0
    3.9987   -9.4443   17.6362 N   0  0  0  0  0  0  0  0  0  0  0  0
    1.5544   -9.2197   15.2657 C   0  0  0  0  0  0  0  0  0  0  0  0
   -1.0157  -11.8990   13.0583 N   0  0  0  0  0  0  0  0  0  0  0  0
    0.3593  -10.6694   14.6088 He  0  0  0  0  0  0  0  0  0  0  0  0
    9.2690   -9.1739   16.6564 He  0  0  0  0  0  0  0  0  0  0  0  0
   -1.6056  -12.7251   14.2409 He  0  0  0  0  0  0  0  0  0  0  0  0
    6.5277   -9.3099   17.1872 He  0  0  0  0  0  0  0  0  0  0  0  0
  1 13  1  0
  1 15  4  0
  1 18  4  0
  1 19  4  0
  1 21  1  0
  1 25  4  0
  2 29  1  0
  3  6  4  0
  3  7  2  0
  3 10  1  0
  3 13  2  0
  3 17  3  0
  3 18  2  0
  3 22  4  0
  3 27  1  0
  3 29  1  0
  4  5  4  0
  4  6  4  0
  4 11  4  0
  4 13  3  0
  4 15  1  0
  4 18  1  0
  4 22  4  0
  4 24  4  0
  4 25  2  0
  4 29  1  0
  5  8  4  0
  5 11  3  0
  5 12  2  0
  5 13  4  0
  5 14  2  0
  5 16  3  0
  5 19  4  0
  5 22  3  0
  5 25  4  0
  5 27  1  0
  5 28  3  0
  6  8  1  0
  6 12  4  0
  6 20  2  0
  7  9  3  0
  7 21  1  0
  7 22  4  0
  7 26  3  0
  7 27  3  0
  8 10  4  0
  8 11  4  0
  8 26  4  0
  9 10  4  0
  9 12  3  0
  9 13  2  0
  9 14  4  0
  9 15  2  0
  9 17  3  0
  9 21  2  0
  9 27  3  0
 10 14  4  0
 10 19  1  0
 10 20  4  0
 10 22  2  0
 10 24  4  0
 10 25  4  0
 10 26  3  0
 10 28  1  0
 11 17  1  0
 11 18  1  0
 11 21  3  0
 11 22  1  0
 12 13  1  0
 12 15  4  0
 12 18  2  0
 12 21  2  0
 12 28  4  0
 12 29  1  0
 13 14  2  0
 13 22  2  0
 13 25  1  0
 13 26  4  0
 13 27  1  0
 13 28  3  0
 13 30  3  0
 14 15  2  0
 14 23  4  0
 14 25  1  0
 14 29  3  0
 15 27  4  0
 15 29  4  0
 16 24  4  0
 16 26  3  0
 17 19  4  0
 17 23  1  0
 17 24  2  0
 17 25  3  0
 17 26  3  0
 17 28  2  0
 17 29  2  0
 17 30  1  0
 18 21  1  0
 18 25  4  0
 18 26  1  0
 18 27  2  0
 18 30  4  0
 19 26  1  0
 20 22  1  0
 22 23  4  0
 22 26  2  0
 23 24  2  0
 26 27  2  0
 27 30  4  0
M  END
$$$$

 Created by Python create_sdf_string function

 34 29  0  0  0  0  0  0  0  0999 V2000
    3.8758   -7.7178   15.5949 C   0  0  0  0  0  0  0  0  0  0  0  0
    8.2731   -6.4076   16.8768 C   0  0  0  0  0  0  0  0  0  0  0  0
    0.6633   -9.1915   14.9656 O   0  0  0  0  0  0  0  0  0  0  0  0
    9.5473   -3.4816   26.6465 C   0  0  0  0  0  0  0  0  0  0  0  0
    9.2141   -6.2387   17.3074 C   0  0  0  0  0  0  0  0  0  0  0  0
    8.6490   -2.4135   26.8849 N   0  0  0  0  0  0  0  0  0  0  0  0
    0.1082  -10.3530   14.6560 C   0  0  0  0  0  0  0  0  0  0  0  0
    9.0006   -7.9195   18.1848 C   0  0  0  0  0  0  0  0  0  0  0  0
    9.7721   -1.8113   25.0161 N   0  0  0  0  0  0  0  0  0  0  0  0
    8.4079   -8.3996   16.8003 C   0  0  0  0  0  0  0  0  0  0  0  0
   -0.2489  -11.2823   15.5955 N   0  0  0  0  0  0  0  0  0  0  0  0
    7.0264   -7.0208   15.3295 C   0  0  0  0  0  0  0  0  0  0  0  0
   -1.3432  -12.5407   14.0048 C   0  0  0  0  0  0  0  0  0  0  0  0
   10.2754   -3.0877   25.5083 N   0  0  0  0  0  0  0  0  0  0  0  0
    2.2719   -9.5498   16.8297 C   0  0  0  0  0  0  0  0  0  0  0  0
    8.9503   -5.5990   16.5707 C   0  0  0  0  0  0  0  0  0  0  0  0
   -0.9804  -12.3563   15.2641 C   0  0  0  0  0  0  0  0  0  0  0  0
    2.6261   -7.9767   15.2043 C   0  0  0  0  0  0  0  0  0  0  0  0
   10.8706   -3.5572   17.3173 C   0  0  0  0  0  0  0  0  0  0  0  0
    5.9692   -8.5418   17.4613 N   0  0  0  0  0  0  0  0  0  0  0  0
    8.5587   -6.6603   16.8019 C   0  0  0  0  0  0  0  0  0  0  0  0
    6.6377   -8.5909   16.6144 C   0  0  0  0  0  0  0  0  0  0  0  0
   10.4729   -5.4184   18.4919 C   0  0  0  0  0  0  0  0  0  0  0  0
   -0.2621  -10.5752   13.3381 C   0  0  0  0  0  0  0  0  0  0  0  0
    7.0192   -5.4807   15.3489 O   0  0  0  0  0  0  0  0  0  0  0  0
    7.6552   -7.5435   15.0568 N   0  0  0  0  0  0  0  0  0  0  0  0
    6.6052   -8.7506   17.1982 C   0  0  0  0  0  0  0  0  0  0  0  0
   11.0604   -4.2080   18.2386 C   0  0  0  0  0  0  0  0  0  0  0  0
    4.3346   -8.5227   16.6489 C   0  0  0  0  0  0  0  0  0  0  0  0
    8.8390   -1.3693   25.9139 N   0  0  0  0  0  0  0  0  0  0  0  0
    9.8982   -3.9550   16.3263 C   0  0  0  0  0  0  0  0  0  0  0  0
    3.5140   -9.3658   17.2634 N   0  0  0  0  0  0  0  0  0  0  0  0
    1.8274   -8.9163   15.6513 C   0  0  0  0  0  0  0  0  0  0  0  0
   -1.0382  -11.6717   13.0574 C   0  0  0  0  0  0  0  0  0  0  0  0
  1 18  4  0
  1 29  4  0
  3  7  1  0
  3 33  1  0
  4  6  4  0
  4 14  4  0
  5 16  4  0
  5 23  4  0
  6 30  4  0
  7 11  4  0
  7 24  4  0
  9 14  4  0
  9 30  4  0
 11 17  4  0
 12 25  2  0
 12 26  1  0
 13 17  4  0
 13 34  4  0
 15 32  4  0
 15 33  4  0
 16 31  4  0
 18 33  4  0
 19 28  4  0
 19 31  4  0
 20 29  1  0
 22 27  1  0
 23 28  4  0
 24 34  4  0
 29 32  4  0
M  END
$$$$

 Created by Python create_sdf_string function

 34 91  0  0  0  0  0  0  0  0999 V2000
    3.5628   -7.1594   14.7872 C   0  0  0  0  0  0  0  0  0  0  0  0
    7.9881   -6.0197   17.0069 C   0  0  0  0  0  0  0  0  0  0  0  0
    1.0835   -9.2695   15.1879 O   0  0  0  0  0  0  0  0  0  0  0  0
    9.1582   -3.5592   26.9879 C   0  0  0  0  0  0  0  0  0  0  0  0
    8.5422   -3.1018   26.6036 N   0  0  0  0  0  0  0  0  0  0  0  0
   -0.7588  -10.4191   13.8833 S   0  0  0  0  0  0  0  0  0  0  0  0
    9.5627   -8.1912   17.7185 C   0  0  0  0  0  0  0  0  0  0  0  0
    9.1831   -2.3439   25.2475 N   0  0  0  0  0  0  0  0  0  0  0  0
    8.1244   -8.9679   16.2043 C   0  0  0  0  0  0  0  0  0  0  0  0
   -0.0557  -11.6647   15.6582 N   0  0  0  0  0  0  0  0  0  0  0  0
    7.1195   -7.2198   15.9421 C   0  0  0  0  0  0  0  0  0  0  0  0
   -1.2464  -12.2178   13.7264 Se  0  0  0  0  0  0  0  0  0  0  0  0
   10.4043   -2.8016   25.8392 N   0  0  0  0  0  0  0  0  0  0  0  0
    2.4424   -9.9208   16.4291 N   0  0  0  0  0  0  0  0  0  0  0  0
   10.0922   -5.6970   17.8728 N   0  0  0  0  0  0  0  0  0  0  0  0
   -1.0261  -13.1253   15.5939 C   0  0  0  0  0  0  0  0  0  0  0  0
    2.4548   -7.7744   15.3381 C   0  0  0  0  0  0  0  0  0  0  0  0
   11.0034   -3.3931   17.2201 C   0  0  0  0  0  0  0  0  0  0  0  0
    8.6909   -6.3810   16.3779 C   0  0  0  0  0  0  0  0  0  0  0  0
    9.7405   -5.4184   18.2563 C   0  0  0  0  0  0  0  0  0  0  0  0
   -0.6728  -10.2920   12.8163 C   0  0  0  0  0  0  0  0  0  0  0  0
    6.7625   -7.7057   16.6122 P   0  0  0  0  0  0  0  0  0  0  0  0
   11.1501   -3.8824   18.1620 C   0  0  0  0  0  0  0  0  0  0  0  0
    4.0696   -8.6192   16.5971 C   0  0  0  0  0  0  0  0  0  0  0  0
    8.9473   -1.3591   26.2786 N   0  0  0  0  0  0  0  0  0  0  0  0
    9.6259   -3.7370   16.2077 F   0  0  0  0  0  0  0  0  0  0  0  0
    1.9236   -8.3999   15.4300 C   0  0  0  0  0  0  0  0  0  0  0  0
   -1.0440  -12.0028   12.5151 C   0  0  0  0  0  0  0  0  0  0  0  0
   10.1481   -5.4333   17.1582 He  0  0  0  0  0  0  0  0  0  0  0  0
    4.3314   -9.7804   16.7125 He  0  0  0  0  0  0  0  0  0  0  0  0
    6.9029   -8.4366   16.3995 He  0  0  0  0  0  0  0  0  0  0  0  0
    6.6557   -4.9465   14.8031 He  0  0  0  0  0  0  0  0  0  0  0  0
    7.6880   -7.1080   15.7063 He  0  0  0  0  0  0  0  0  0  0  0  0
    3.8959   -9.3734   17.3533 He  0  0  0  0  0  0  0  0  0  0  0  0
  1 11  3  0
  1 17  4  0
  1 18  4  0
  1 19  4  0
  1 22  4  0
  1 24  4  0
  2  4  2  0
  2 11  4  0
  2 13  1  0
  2 16  4  0
  2 18  2  0
  2 20  2  0
  2 23  3  0
  2 28  2  0
  3  6  2  0
  3 11  1  0
  3 15  3  0
  3 21  4  0
  3 22  2  0
  3 27  1  0
  4  5  4  0
  4 11  2  0
  4 12  4  0
  4 15  3  0
  4 18  2  0
  4 21  4  0
  4 23  3  0
  5 14  1  0
  5 15  3  0
  6 20  1  0
  6 27  1  0
  7  8  3  0
  7 22  2  0
  7 25  3  0
  7 27  4  0
  8 13  4  0
  8 25  1  0
  9 10  4  0
  9 12  2  0
  9 13  3  0
  9 15  4  0
  9 18  4  0
  9 23  1  0
  9 25  1  0
 10 16  4  0
 10 19  2  0
 11 12  4  0
 11 14  1  0
 11 16  3  0
 11 17  2  0
 11 18  2  0
 11 19  3  0
 11 20  2  0
 11 22  1  0
 11 25  3  0
 11 27  4  0
 12 16  4  0
 12 18  1  0
 12 25  4  0
 12 28  4  0
 13 16  4  0
 13 20  3  0
 13 27  1  0
 14 19  4  0
 14 21  1  0
 14 23  4  0
 14 27  4  0
 14 28  3  0
 15 17  2  0
 15 23  4  0
 15 27  2  0
 16 20  3  0
 16 21  2  0
 16 27  4  0
 16 28  4  0
 17 22  1  0
 18 26  4  0
 18 27  3  0
 19 21  2  0
 19 25  4  0
 19 26  3  0
 19 27  4  0
 20 23  4  0
 20 27  1  0
 20 28  3  0
 21 22  4  0
 21 24  2  0
 21 28  4  0
 22 23  2  0
 22 27  2  0
 22 28  4  0
M  END
$$$$

 Created by Python create_sdf_string function

 34 36  0  0  0  0  0  0  0  0999 V2000
    3.6185   -7.4311   15.3813 C   0  0  0  0  0  0  0  0  0  0  0  0
    7.9110   -6.1482   16.8391 C   0  0  0  0  0  0  0  0  0  0  0  0
    0.6647   -9.1995   14.8396 O   0  0  0  0  0  0  0  0  0  0  0  0
    9.4531   -3.6107   26.6494 C   0  0  0  0  0  0  0  0  0  0  0  0
    9.4441   -5.1578   16.9392 C   0  0  0  0  0  0  0  0  0  0  0  0
    8.3910   -3.0000   26.7938 N   0  0  0  0  0  0  0  0  0  0  0  0
    0.0012  -10.3796   14.4726 C   0  0  0  0  0  0  0  0  0  0  0  0
    9.0941   -8.1388   17.6946 C   0  0  0  0  0  0  0  0  0  0  0  0
    9.4793   -2.0336   25.1821 N   0  0  0  0  0  0  0  0  0  0  0  0
    8.0990   -8.6746   16.3357 C   0  0  0  0  0  0  0  0  0  0  0  0
   -0.2194  -11.3146   15.4430 N   0  0  0  0  0  0  0  0  0  0  0  0
    6.6348   -6.9245   15.9031 C   0  0  0  0  0  0  0  0  0  0  0  0
   -1.3327  -12.5484   13.8325 C   0  0  0  0  0  0  0  0  0  0  0  0
   10.2647   -3.0662   25.7192 N   0  0  0  0  0  0  0  0  0  0  0  0
    2.3095   -9.6472   16.4296 N   0  0  0  0  0  0  0  0  0  0  0  0
    9.8834   -5.4653   17.9707 C   0  0  0  0  0  0  0  0  0  0  0  0
   -0.9740  -12.3947   15.1178 C   0  0  0  0  0  0  0  0  0  0  0  0
    2.5431   -7.7909   14.9564 C   0  0  0  0  0  0  0  0  0  0  0  0
   10.8341   -3.4010   17.0889 C   0  0  0  0  0  0  0  0  0  0  0  0
    4.4690   -9.7189   17.5651 O   0  0  0  0  0  0  0  0  0  0  0  0
    8.4992   -6.1134   16.3680 C   0  0  0  0  0  0  0  0  0  0  0  0
    6.8552   -8.8829   16.6417 C   0  0  0  0  0  0  0  0  0  0  0  0
   10.4066   -5.1285   18.6951 C   0  0  0  0  0  0  0  0  0  0  0  0
   -0.4893  -10.4848   13.1720 C   0  0  0  0  0  0  0  0  0  0  0  0
    6.6203   -5.6117   15.2937 O   0  0  0  0  0  0  0  0  0  0  0  0
    8.1657   -7.3986   15.5622 C   0  0  0  0  0  0  0  0  0  0  0  0
    6.0069   -7.7401   16.2439 N   0  0  0  0  0  0  0  0  0  0  0  0
   10.9759   -3.9004   18.3050 C   0  0  0  0  0  0  0  0  0  0  0  0
    4.4058   -8.2795   16.2920 C   0  0  0  0  0  0  0  0  0  0  0  0
    8.5000   -1.8564   25.9726 N   0  0  0  0  0  0  0  0  0  0  0  0
    9.9178   -3.9943   16.3447 C   0  0  0  0  0  0  0  0  0  0  0  0
    4.0499   -9.1905   16.7786 C   0  0  0  0  0  0  0  0  0  0  0  0
    1.8846   -8.8941   15.4148 C   0  0  0  0  0  0  0  0  0  0  0  0
   -1.1499  -11.6392   12.8923 C   0  0  0  0  0  0  0  0  0  0  0  0
  1 18  4  0
  1 29  4  0
  2 21  1  0
  3  7  1  0
  3 33  1  0
  4  6  4  0
  4 14  4  0
  5 16  4  0
  5 21  1  0
  5 31  4  0
  6 30  4  0
  7 11  4  0
  7 24  4  0
  8 10  1  0
  9 14  4  0
  9 30  4  0
 10 22  1  0
 10 26  1  0
 11 17  4  0
 12 25  2  0
 12 27  1  0
 13 17  4  0
 13 34  4  0
 15 32  4  0
 15 33  4  0
 16 23  4  0
 18 33  4  0
 19 28  4  0
 19 31  4  0
 20 32  2  0
 21 26  1  0
 22 27  1  0
 23 28  4  0
 24 34  4  0
 27 29  1  0
 29 32  4  0
M  END
$$$$

 Created by Python create_sdf_string function

 34 88  0  0  0  0  0  0  0  0999 V2000
    3.1175   -7.3423   15.6239 O   0  0  0  0  0  0  0  0  0  0  0  0
    0.6713   -9.3857   14.6357 N   0  0  0  0  0  0  0  0  0  0  0  0
   10.2061   -3.0689   25.8038 C   0  0  0  0  0  0  0  0  0  0  0  0
    8.4734   -3.4234   26.7635 N   0  0  0  0  0  0  0  0  0  0  0  0
    0.1179  -10.6198   14.8551 C   0  0  0  0  0  0  0  0  0  0  0  0
    8.8352   -2.6445   24.8072 N   0  0  0  0  0  0  0  0  0  0  0  0
    6.1296   -8.0519   15.6790 C   0  0  0  0  0  0  0  0  0  0  0  0
   -1.2386  -11.5683   14.8281 N   0  0  0  0  0  0  0  0  0  0  0  0
   -1.4210  -12.5513   13.7097 C   0  0  0  0  0  0  0  0  0  0  0  0
   10.1825   -2.6581   26.6146 N   0  0  0  0  0  0  0  0  0  0  0  0
    1.8395   -9.8303   16.3665 N   0  0  0  0  0  0  0  0  0  0  0  0
   10.5258   -6.3853   18.1732 F   0  0  0  0  0  0  0  0  0  0  0  0
   -1.2872  -12.4225   14.6934 C   0  0  0  0  0  0  0  0  0  0  0  0
    2.2124   -8.3611   14.9335 C   0  0  0  0  0  0  0  0  0  0  0  0
   11.2060   -3.4054   17.6807 C   0  0  0  0  0  0  0  0  0  0  0  0
    7.4089   -6.1811   15.1405 C   0  0  0  0  0  0  0  0  0  0  0  0
    6.3512   -9.0416   16.2295 C   0  0  0  0  0  0  0  0  0  0  0  0
   -0.8112  -10.8854   12.8314 C   0  0  0  0  0  0  0  0  0  0  0  0
    6.5720   -5.5111   15.7392 O   0  0  0  0  0  0  0  0  0  0  0  0
    8.5633   -7.5056   15.0940 C   0  0  0  0  0  0  0  0  0  0  0  0
    4.9755   -6.2441   17.0629 S   0  0  0  0  0  0  0  0  0  0  0  0
   11.4648   -4.2201   18.3687 C   0  0  0  0  0  0  0  0  0  0  0  0
    3.9646   -8.1906   15.7001 C   0  0  0  0  0  0  0  0  0  0  0  0
    7.9202   -1.9107   26.1185 N   0  0  0  0  0  0  0  0  0  0  0  0
   10.3175   -4.0465   15.9976 F   0  0  0  0  0  0  0  0  0  0  0  0
    4.2528   -9.4719   16.3931 C   0  0  0  0  0  0  0  0  0  0  0  0
    2.1904   -8.6407   15.8170 C   0  0  0  0  0  0  0  0  0  0  0  0
    7.7596   -6.6771   16.7199 He  0  0  0  0  0  0  0  0  0  0  0  0
   10.3717   -5.1830   16.7805 He  0  0  0  0  0  0  0  0  0  0  0  0
    9.2996   -8.1096   17.4277 He  0  0  0  0  0  0  0  0  0  0  0  0
    5.6588   -8.6644   17.1718 He  0  0  0  0  0  0  0  0  0  0  0  0
    2.5215   -9.5337   18.7108 He  0  0  0  0  0  0  0  0  0  0  0  0
   10.2237   -5.4977   18.7350 He  0  0  0  0  0  0  0  0  0  0  0  0
   -1.4668  -10.9176   13.3291 He  0  0  0  0  0  0  0  0  0  0  0  0
  1  4  1  0
  1 11  4  0
  1 14  4  0
  1 23  4  0
  1 26  1  0
  2  6  4  0
  2 10  3  0
  2 11  1  0
  2 13  1  0
  2 14  3  0
  2 16  1  0
  2 26  4  0
  3  4  4  0
  3  8  4  0
  3 10  4  0
  3 11  3  0
  3 16  2  0
  3 21  2  0
  3 23  2  0
  4  6  3  0
  4  7  4  0
  4 12  1  0
  4 14  1  0
  4 16  4  0
  4 18  4  0
  4 21  2  0
  4 24  4  0
  5  6  3  0
  5  7  1  0
  5  8  4  0
  5 16  4  0
  5 18  4  0
  5 20  4  0
  5 24  3  0
  5 25  1  0
  6  7  3  0
  6  9  4  0
  6 14  4  0
  7 12  3  0
  7 13  3  0
  7 14  4  0
  7 15  4  0
  7 18  2  0
  7 20  3  0
  7 24  1  0
  7 26  3  0
  8  9  2  0
  8 12  1  0
  8 13  4  0
  8 21  1  0
  8 24  1  0
  9 13  4  0
  9 16  1  0
  9 21  4  0
 10 15  4  0
 10 21  1  0
 11 12  3  0
 11 21  2  0
 12 13  4  0
 12 16  4  0
 12 19  2  0
 12 21  4  0
 12 22  1  0
 12 24  3  0
 12 26  4  0
 13 14  4  0
 13 18  4  0
 13 19  4  0
 13 26  1  0
 14 20  3  0
 14 21  1  0
 14 23  2  0
 14 27  4  0
 15 21  4  0
 15 22  4  0
 15 25  4  0
 16 20  3  0
 16 24  1  0
 17 21  1  0
 17 23  4  0
 19 21  2  0
 19 26  3  0
 19 27  3  0
 21 24  2  0
 21 25  2  0
 22 23  2  0
 23 26  4  0
 24 26  4  0
M  END
$$$$

 Created by Python create_sdf_string function

 34 32  0  0  0  0  0  0  0  0999 V2000
    3.4558   -7.4624   15.2930 C   0  0  0  0  0  0  0  0  0  0  0  0
    8.1514   -6.9584   16.9476 C   0  0  0  0  0  0  0  0  0  0  0  0
    0.5152   -9.4513   15.0127 N   0  0  0  0  0  0  0  0  0  0  0  0
    9.8484   -3.3669   26.2936 C   0  0  0  0  0  0  0  0  0  0  0  0
    9.5466   -5.0983   16.6709 C   0  0  0  0  0  0  0  0  0  0  0  0
    8.4450   -3.3306   26.7024 N   0  0  0  0  0  0  0  0  0  0  0  0
   -0.1883  -10.4664   14.5431 C   0  0  0  0  0  0  0  0  0  0  0  0
    9.0524   -7.8068   17.7717 C   0  0  0  0  0  0  0  0  0  0  0  0
    8.9445   -2.2688   24.9960 N   0  0  0  0  0  0  0  0  0  0  0  0
    6.8320   -8.1535   15.8024 C   0  0  0  0  0  0  0  0  0  0  0  0
   -0.5617  -11.4921   15.3187 N   0  0  0  0  0  0  0  0  0  0  0  0
    6.2316   -8.5059   17.2172 C   0  0  0  0  0  0  0  0  0  0  0  0
   -1.7505  -12.4242   13.5697 C   0  0  0  0  0  0  0  0  0  0  0  0
   10.2716   -2.7912   25.8689 N   0  0  0  0  0  0  0  0  0  0  0  0
    1.4250   -9.8147   16.4975 N   0  0  0  0  0  0  0  0  0  0  0  0
    9.8269   -5.7649   17.6835 C   0  0  0  0  0  0  0  0  0  0  0  0
   -1.4409  -12.4687   14.8404 C   0  0  0  0  0  0  0  0  0  0  0  0
    2.3354   -7.9228   15.1016 C   0  0  0  0  0  0  0  0  0  0  0  0
   11.0643   -3.5923   17.4165 C   0  0  0  0  0  0  0  0  0  0  0  0
    3.0719   -9.7318   17.1755 C   0  0  0  0  0  0  0  0  0  0  0  0
    7.9958   -6.2978   16.0031 C   0  0  0  0  0  0  0  0  0  0  0  0
    6.5528   -8.8683   16.2859 C   0  0  0  0  0  0  0  0  0  0  0  0
   10.5302   -5.5104   18.6967 C   0  0  0  0  0  0  0  0  0  0  0  0
   -0.5791  -10.4544   13.2229 C   0  0  0  0  0  0  0  0  0  0  0  0
    6.7627   -5.7217   15.5742 O   0  0  0  0  0  0  0  0  0  0  0  0
    8.4230   -7.8522   14.9268 C   0  0  0  0  0  0  0  0  0  0  0  0
    5.9300   -7.1460   16.3256 C   0  0  0  0  0  0  0  0  0  0  0  0
   11.1492   -4.2993   18.5630 C   0  0  0  0  0  0  0  0  0  0  0  0
    4.2727   -8.2004   16.0880 C   0  0  0  0  0  0  0  0  0  0  0  0
    7.9740   -2.3672   25.9023 N   0  0  0  0  0  0  0  0  0  0  0  0
   10.1891   -4.0673   16.3879 C   0  0  0  0  0  0  0  0  0  0  0  0
    4.1729   -9.1794   16.7769 C   0  0  0  0  0  0  0  0  0  0  0  0
    1.7507   -9.0243   15.6194 C   0  0  0  0  0  0  0  0  0  0  0  0
   -1.2788  -11.4362   12.7817 C   0  0  0  0  0  0  0  0  0  0  0  0
  1 18  4  0
  1 29  4  0
  2  8  1  0
  2 21  1  0
  3  7  1  0
  3 15  1  0
  3 33  1  0
  4  6  4  0
  4 14  4  0
  5 16  4  0
  5 31  4  0
  6 30  4  0
  7 11  4  0
  7 24  4  0
  9 14  4  0
  9 30  4  0
 10 22  1  0
 10 26  1  0
 11 17  4  0
 12 22  1  0
 13 17  4  0
 13 34  4  0
 15 33  4  0
 16 23  4  0
 18 33  4  0
 19 28  4  0
 19 31  4  0
 20 32  4  0
 23 28  4  0
 24 34  4  0
 25 27  2  0
 29 32  4  0
M  END
$$$$

 Created by Python create_sdf_string function

 34 40  0  0  0  0  0  0  0  0999 V2000
    3.4501   -7.4052   15.0378 Se  0  0  0  0  0  0  0  0  0  0  0  0
    8.1517   -7.2564   17.3307 C   0  0  0  0  0  0  0  0  0  0  0  0
    8.1351   -4.0023   26.1681 N   0  0  0  0  0  0  0  0  0  0  0  0
   -0.4960  -10.9327   14.9172 C   0  0  0  0  0  0  0  0  0  0  0  0
    9.6523   -7.7286   17.3976 N   0  0  0  0  0  0  0  0  0  0  0  0
    8.7901   -2.2533   24.5867 O   0  0  0  0  0  0  0  0  0  0  0  0
   -0.4635  -11.7484   15.2278 N   0  0  0  0  0  0  0  0  0  0  0  0
   -1.8406  -12.1859   13.6293 C   0  0  0  0  0  0  0  0  0  0  0  0
   10.1442   -3.4401   25.9056 C   0  0  0  0  0  0  0  0  0  0  0  0
    1.3538   -9.6491   16.9629 N   0  0  0  0  0  0  0  0  0  0  0  0
    9.0156   -5.9553   16.8695 O   0  0  0  0  0  0  0  0  0  0  0  0
   -2.0440  -12.2893   15.1495 C   0  0  0  0  0  0  0  0  0  0  0  0
    6.1327   -8.8673   16.1157 C   0  0  0  0  0  0  0  0  0  0  0  0
   10.0426   -5.5657   19.2149 C   0  0  0  0  0  0  0  0  0  0  0  0
   -0.5814  -10.1081   13.3462 C   0  0  0  0  0  0  0  0  0  0  0  0
    6.2736   -5.5187   16.2531 O   0  0  0  0  0  0  0  0  0  0  0  0
    8.5596   -7.3953   14.6862 C   0  0  0  0  0  0  0  0  0  0  0  0
   10.9917   -3.7066   19.3713 C   0  0  0  0  0  0  0  0  0  0  0  0
    3.9371   -7.9221   15.7263 C   0  0  0  0  0  0  0  0  0  0  0  0
   10.5586   -4.6156   16.3902 C   0  0  0  0  0  0  0  0  0  0  0  0
    4.0314   -9.4258   16.8322 C   0  0  0  0  0  0  0  0  0  0  0  0
    1.3715   -8.3874   15.4851 C   0  0  0  0  0  0  0  0  0  0  0  0
   -1.1441  -11.3382   13.2061 C   0  0  0  0  0  0  0  0  0  0  0  0
    0.5283   -9.3374   14.7581 He  0  0  0  0  0  0  0  0  0  0  0  0
   10.4812   -3.0874   26.8626 He  0  0  0  0  0  0  0  0  0  0  0  0
    9.4982   -5.3773   16.2441 He  0  0  0  0  0  0  0  0  0  0  0  0
    5.7336   -8.5777   16.6845 He  0  0  0  0  0  0  0  0  0  0  0  0
    8.6413   -7.2438   17.4672 He  0  0  0  0  0  0  0  0  0  0  0  0
    2.1557   -8.5124   15.1642 He  0  0  0  0  0  0  0  0  0  0  0  0
   11.7140   -3.6986   17.2571 He  0  0  0  0  0  0  0  0  0  0  0  0
    4.1243  -11.2752   17.4133 He  0  0  0  0  0  0  0  0  0  0  0  0
    7.6044   -7.6802   17.3668 He  0  0  0  0  0  0  0  0  0  0  0  0
    5.8053   -6.8682   17.1812 He  0  0  0  0  0  0  0  0  0  0  0  0
    8.0825   -1.7574   26.0115 He  0  0  0  0  0  0  0  0  0  0  0  0
  1 14  4  0
  1 19  4  0
  1 20  1  0
  2  3  3  0
  2  5  3  0
  2 11  1  0
  2 15  4  0
  3 12  2  0
  3 15  3  0
  3 20  4  0
  3 21  3  0
  4  7  4  0
  4 11  4  0
  4 15  4  0
  4 23  3  0
  5 12  2  0
  6  9  4  0
  6 10  4  0
  7 11  3  0
  8 12  4  0
  8 13  4  0
  8 14  1  0
  8 16  3  0
  8 23  4  0
  9 12  1  0
  9 14  3  0
  9 23  3  0
 10 11  3  0
 10 19  4  0
 10 20  1  0
 10 22  4  0
 11 12  2  0
 11 13  2  0
 11 17  3  0
 11 19  3  0
 11 23  4  0
 12 17  1  0
 14 19  3  0
 15 22  4  0
 19 21  4  0
M  END
$$$$

 Created by Python create_sdf_string function

 34 29  0  0  0  0  0  0  0  0999 V2000
    3.7698   -7.4113   15.2566 C   0  0  0  0  0  0  0  0  0  0  0  0
    8.1307   -7.3588   17.3832 C   0  0  0  0  0  0  0  0  0  0  0  0
    0.3111   -9.3284   15.2895 N   0  0  0  0  0  0  0  0  0  0  0  0
   10.1069   -3.5531   26.6890 N   0  0  0  0  0  0  0  0  0  0  0  0
    9.5828   -5.2748   16.7854 C   0  0  0  0  0  0  0  0  0  0  0  0
    8.3852   -3.4673   26.6776 N   0  0  0  0  0  0  0  0  0  0  0  0
   -0.2829  -10.4825   14.7717 C   0  0  0  0  0  0  0  0  0  0  0  0
    9.4655   -8.0710   17.7849 C   0  0  0  0  0  0  0  0  0  0  0  0
    9.1906   -2.3251   24.8608 N   0  0  0  0  0  0  0  0  0  0  0  0
    5.4007   -8.7345   16.8699 N   0  0  0  0  0  0  0  0  0  0  0  0
   -0.7695  -11.4611   15.5495 N   0  0  0  0  0  0  0  0  0  0  0  0
    8.4656   -7.2292   17.4086 C   0  0  0  0  0  0  0  0  0  0  0  0
   -1.9977  -12.2877   13.7386 C   0  0  0  0  0  0  0  0  0  0  0  0
   10.2505   -3.1853   25.5602 C   0  0  0  0  0  0  0  0  0  0  0  0
    1.9402   -9.9391   16.8166 N   0  0  0  0  0  0  0  0  0  0  0  0
    9.2041   -5.8789   17.1637 C   0  0  0  0  0  0  0  0  0  0  0  0
   -1.6460  -12.3652   15.0027 C   0  0  0  0  0  0  0  0  0  0  0  0
    1.9708   -8.2129   15.2217 N   0  0  0  0  0  0  0  0  0  0  0  0
   11.0935   -3.6990   17.5802 C   0  0  0  0  0  0  0  0  0  0  0  0
    3.3876  -10.0420   17.5098 N   0  0  0  0  0  0  0  0  0  0  0  0
    7.5460   -7.8446   16.8450 C   0  0  0  0  0  0  0  0  0  0  0  0
    6.3439   -8.7689   16.4195 C   0  0  0  0  0  0  0  0  0  0  0  0
   10.1704   -5.3420   18.9923 C   0  0  0  0  0  0  0  0  0  0  0  0
   -0.4576  -10.4171   13.5127 C   0  0  0  0  0  0  0  0  0  0  0  0
    6.4518   -5.9183   15.8817 O   0  0  0  0  0  0  0  0  0  0  0  0
    8.4685   -7.6766   14.9060 C   0  0  0  0  0  0  0  0  0  0  0  0
    6.3858   -7.3365   16.6996 C   0  0  0  0  0  0  0  0  0  0  0  0
   10.8744   -4.1750   18.8107 C   0  0  0  0  0  0  0  0  0  0  0  0
    3.7231   -8.2775   15.9385 C   0  0  0  0  0  0  0  0  0  0  0  0
    8.1046   -2.3864   25.8488 N   0  0  0  0  0  0  0  0  0  0  0  0
   10.6214   -4.2577   16.5118 C   0  0  0  0  0  0  0  0  0  0  0  0
    3.9797   -9.2224   16.8142 C   0  0  0  0  0  0  0  0  0  0  0  0
    1.5486   -9.1288   15.6841 C   0  0  0  0  0  0  0  0  0  0  0  0
   -1.4484  -11.3477   12.9134 C   0  0  0  0  0  0  0  0  0  0  0  0
  1 29  4  0
  2 16  1  0
  2 21  1  0
  3  7  1  0
  3 33  1  0
  4  6  4  0
  4 14  4  0
  5 16  4  0
  5 31  4  0
  6 30  4  0
  7 11  4  0
  7 24  4  0
  9 14  4  0
  9 30  4  0
 10 22  1  0
 10 32  4  0
 11 17  4  0
 13 17  4  0
 13 34  4  0
 15 20  4  0
 15 33  4  0
 18 29  4  0
 18 33  4  0
 19 28  4  0
 19 31  4  0
 20 32  4  0
 23 28  4  0
 24 34  4  0
 29 32  4  0
M  END
$$$$

 Created by Python create_sdf_string function

 34 88  0  0  0  0  0  0  0  0999 V2000
    8.2230   -7.4115   17.0151 C   0  0  0  0  0  0  0  0  0  0  0  0
    0.0121   -9.3195   15.3836 N   0  0  0  0  0  0  0  0  0  0  0  0
    9.7666   -3.8355   26.2278 N   0  0  0  0  0  0  0  0  0  0  0  0
    9.6588   -4.6748   17.6027 Cl  0  0  0  0  0  0  0  0  0  0  0  0
    8.7198   -3.6942   26.1929 N   0  0  0  0  0  0  0  0  0  0  0  0
   -0.1268  -10.4135   15.1189 S   0  0  0  0  0  0  0  0  0  0  0  0
    9.6101   -7.4444   17.7378 C   0  0  0  0  0  0  0  0  0  0  0  0
    9.2352   -3.2392   24.8573 N   0  0  0  0  0  0  0  0  0  0  0  0
    5.5892   -7.9130   16.8553 N   0  0  0  0  0  0  0  0  0  0  0  0
   -0.2341  -10.8933   15.1182 C   0  0  0  0  0  0  0  0  0  0  0  0
    8.5474   -7.6130   16.1744 C   0  0  0  0  0  0  0  0  0  0  0  0
   -1.8706  -12.3323   13.2850 C   0  0  0  0  0  0  0  0  0  0  0  0
   10.6431   -3.1195   25.5878 C   0  0  0  0  0  0  0  0  0  0  0  0
    2.2839   -9.6799   17.0159 N   0  0  0  0  0  0  0  0  0  0  0  0
    1.9943   -7.8430   15.5709 N   0  0  0  0  0  0  0  0  0  0  0  0
   10.6606   -3.5656   17.7293 C   0  0  0  0  0  0  0  0  0  0  0  0
    5.4579  -10.3819   20.3851 O   0  0  0  0  0  0  0  0  0  0  0  0
    6.0285   -8.7384   16.9667 C   0  0  0  0  0  0  0  0  0  0  0  0
   10.0271   -5.0735   19.0159 C   0  0  0  0  0  0  0  0  0  0  0  0
   -0.5423  -10.6179   13.4942 C   0  0  0  0  0  0  0  0  0  0  0  0
    6.6160   -5.6140   16.3454 O   0  0  0  0  0  0  0  0  0  0  0  0
    8.6883   -7.4630   15.0436 C   0  0  0  0  0  0  0  0  0  0  0  0
   11.4658   -4.6914   18.8932 C   0  0  0  0  0  0  0  0  0  0  0  0
    3.4146   -8.0008   16.4589 C   0  0  0  0  0  0  0  0  0  0  0  0
    7.7583   -2.8356   26.2405 N   0  0  0  0  0  0  0  0  0  0  0  0
   10.8727   -4.6725   16.5738 C   0  0  0  0  0  0  0  0  0  0  0  0
    3.5788   -9.5855   16.5886 Se  0  0  0  0  0  0  0  0  0  0  0  0
    1.8682   -9.5852   15.9027 C   0  0  0  0  0  0  0  0  0  0  0  0
   -1.5375  -11.5542   12.7311 C   0  0  0  0  0  0  0  0  0  0  0  0
    4.0543   -7.5741   15.4896 He  0  0  0  0  0  0  0  0  0  0  0  0
   10.4252   -6.7753   16.7732 He  0  0  0  0  0  0  0  0  0  0  0  0
   -1.4663  -12.0563   14.6827 He  0  0  0  0  0  0  0  0  0  0  0  0
    7.7648   -8.7041   17.4819 He  0  0  0  0  0  0  0  0  0  0  0  0
    5.5977   -8.2022   17.5059 He  0  0  0  0  0  0  0  0  0  0  0  0
  1 17  4  0
  1 25  3  0
  2  4  4  0
  2  6  1  0
  2 15  4  0
  2 17  4  0
  2 18  1  0
  2 28  2  0
  3  9  4  0
  3 10  3  0
  3 13  4  0
  3 17  4  0
  3 26  1  0
  4  7  3  0
  4  8  2  0
  4 11  1  0
  4 14  2  0
  4 15  1  0
  4 16  1  0
  4 17  1  0
  4 18  2  0
  4 20  2  0
  4 21  1  0
  4 24  2  0
  4 29  2  0
  5 25  4  0
  6  9  1  0
  6 13  1  0
  7  8  4  0
  7 11  3  0
  7 21  2  0
  7 23  1  0
  8 10  3  0
  8 11  4  0
  8 13  4  0
  8 17  1  0
  8 25  4  0
  9 10  1  0
  9 13  3  0
  9 15  4  0
  9 21  4  0
  9 22  4  0
  9 26  2  0
  9 28  4  0
 10 11  2  0
 10 18  2  0
 10 23  2  0
 10 29  3  0
 11 12  1  0
 11 13  3  0
 11 16  4  0
 11 18  2  0
 11 20  2  0
 11 21  3  0
 11 23  1  0
 11 25  4  0
 11 26  4  0
 11 27  3  0
 11 29  2  0
 12 13  2  0
 12 17  4  0
 12 20  1  0
 12 23  2  0
 12 29  4  0
 13 17  3  0
 13 19  1  0
 14 17  3  0
 15 24  4  0
 15 25  2  0
 15 28  4  0
 15 29  2  0
 16 23  4  0
 16 26  4  0
 17 18  4  0
 17 23  1  0
 17 25  3  0
 17 27  3  0
 18 28  1  0
 19 23  4  0
 19 27  4  0
 20 29  4  0
 22 23  1  0
 22 24  1  0
 24 26  4  0
 24 27  1  0
 25 27  4  0
 27 28  3  0
 28 29  4  0
M  END
$$$$

 Created by Python create_sdf_string function

 34 36  0  0  0  0  0  0  0  0999 V2000
    4.2949   -7.3141   15.7886 C   0  0  0  0  0  0  0  0  0  0  0  0
    8.2846   -7.5151   17.1894 C   0  0  0  0  0  0  0  0  0  0  0  0
    0.4234   -9.2517   15.5165 N   0  0  0  0  0  0  0  0  0  0  0  0
    9.9293   -3.9886   26.5095 N   0  0  0  0  0  0  0  0  0  0  0  0
    9.8410   -5.7387   17.8537 C   0  0  0  0  0  0  0  0  0  0  0  0
    8.5482   -3.8247   26.6899 N   0  0  0  0  0  0  0  0  0  0  0  0
   -0.1834  -10.3810   14.7907 C   0  0  0  0  0  0  0  0  0  0  0  0
    9.4260   -7.4887   17.9356 C   0  0  0  0  0  0  0  0  0  0  0  0
    9.1772   -2.7054   24.8900 N   0  0  0  0  0  0  0  0  0  0  0  0
    5.7152   -7.6476   16.4041 C   0  0  0  0  0  0  0  0  0  0  0  0
   -0.6856  -11.3943   15.3917 C   0  0  0  0  0  0  0  0  0  0  0  0
    7.9221   -7.1587   16.0854 C   0  0  0  0  0  0  0  0  0  0  0  0
   -1.7599  -12.2706   13.5419 C   0  0  0  0  0  0  0  0  0  0  0  0
   10.3303   -3.2934   25.4085 C   0  0  0  0  0  0  0  0  0  0  0  0
    2.1596   -9.9375   16.8669 N   0  0  0  0  0  0  0  0  0  0  0  0
    9.7397   -5.4367   16.8511 C   0  0  0  0  0  0  0  0  0  0  0  0
   -1.5058  -12.3189   14.8382 C   0  0  0  0  0  0  0  0  0  0  0  0
    2.1950   -8.0771   15.5891 N   0  0  0  0  0  0  0  0  0  0  0  0
   11.0966   -3.6536   17.6502 C   0  0  0  0  0  0  0  0  0  0  0  0
    5.4536   -9.5414   18.8125 O   0  0  0  0  0  0  0  0  0  0  0  0
    7.3443   -8.3380   17.4783 C   0  0  0  0  0  0  0  0  0  0  0  0
    6.0027   -8.6384   17.2537 C   0  0  0  0  0  0  0  0  0  0  0  0
   10.2553   -5.3252   19.0151 C   0  0  0  0  0  0  0  0  0  0  0  0
   -0.4620  -10.3508   13.4010 C   0  0  0  0  0  0  0  0  0  0  0  0
    6.6231   -5.9601   15.8639 O   0  0  0  0  0  0  0  0  0  0  0  0
    8.5716   -7.6584   14.8439 C   0  0  0  0  0  0  0  0  0  0  0  0
    5.1856   -8.8365   17.3556 C   0  0  0  0  0  0  0  0  0  0  0  0
   10.9995   -4.1538   18.9053 C   0  0  0  0  0  0  0  0  0  0  0  0
    3.3881   -8.1984   16.1308 C   0  0  0  0  0  0  0  0  0  0  0  0
    8.0254   -2.9950   25.7890 N   0  0  0  0  0  0  0  0  0  0  0  0
   10.5859   -4.2750   16.6765 C   0  0  0  0  0  0  0  0  0  0  0  0
    3.4883   -9.3363   17.0095 C   0  0  0  0  0  0  0  0  0  0  0  0
    1.5097   -9.1843   16.0073 C   0  0  0  0  0  0  0  0  0  0  0  0
   -1.2553  -11.3113   12.7933 C   0  0  0  0  0  0  0  0  0  0  0  0
  1 10  4  0
  1 29  4  0
  2  8  1  0
  2 12  1  0
  2 21  1  0
  3  7  1  0
  3 33  2  0
  4  6  4  0
  4 14  4  0
  5  8  1  0
  5 16  4  0
  5 23  4  0
  6 30  4  0
  7 11  4  0
  7 24  4  0
  9 14  4  0
  9 30  4  0
 10 22  1  0
 11 17  4  0
 12 26  1  0
 13 17  4  0
 13 34  4  0
 15 32  4  0
 15 33  4  0
 16 31  4  0
 18 29  4  0
 18 33  4  0
 19 28  4  0
 19 31  4  0
 20 27  2  0
 21 22  1  0
 22 27  1  0
 23 28  4  0
 24 34  4  0
 27 32  1  0
 29 32  4  0
M  END
$$$$

 Created by Python create_sdf_string function

 34 73  0  0  0  0  0  0  0  0999 V2000
    8.5615   -7.6536   17.6942 C   0  0  0  0  0  0  0  0  0  0  0  0
    0.2492   -9.3940   15.1299 F   0  0  0  0  0  0  0  0  0  0  0  0
    8.2415   -4.4394   26.2303 N   0  0  0  0  0  0  0  0  0  0  0  0
   -0.0639  -10.2180   14.5579 N   0  0  0  0  0  0  0  0  0  0  0  0
   10.2799   -7.4364   17.2319 C   0  0  0  0  0  0  0  0  0  0  0  0
    9.0977   -2.4178   25.3197 N   0  0  0  0  0  0  0  0  0  0  0  0
    7.2309   -7.9844   16.7563 F   0  0  0  0  0  0  0  0  0  0  0  0
   -0.7552  -11.2267   14.9503 C   0  0  0  0  0  0  0  0  0  0  0  0
   -1.5709  -11.9005   13.8346 C   0  0  0  0  0  0  0  0  0  0  0  0
    9.8939   -2.7449   25.9679 N   0  0  0  0  0  0  0  0  0  0  0  0
    2.0191  -10.1880   17.2759 N   0  0  0  0  0  0  0  0  0  0  0  0
    9.8355   -5.5056   17.3273 Cl  0  0  0  0  0  0  0  0  0  0  0  0
   -1.6643  -12.3526   14.4455 C   0  0  0  0  0  0  0  0  0  0  0  0
    2.0050   -8.4256   15.0542 N   0  0  0  0  0  0  0  0  0  0  0  0
   10.5234   -4.0526   17.5048 C   0  0  0  0  0  0  0  0  0  0  0  0
    5.4323   -7.0813   19.5281 O   0  0  0  0  0  0  0  0  0  0  0  0
    7.6546   -8.8256   19.0102 C   0  0  0  0  0  0  0  0  0  0  0  0
    5.6319   -8.8598   18.3280 C   0  0  0  0  0  0  0  0  0  0  0  0
    9.9256   -5.4341   19.5796 C   0  0  0  0  0  0  0  0  0  0  0  0
   -0.1284  -10.0805   13.4430 C   0  0  0  0  0  0  0  0  0  0  0  0
    7.2394   -6.0479   15.6564 O   0  0  0  0  0  0  0  0  0  0  0  0
    7.9368   -7.7299   15.1249 C   0  0  0  0  0  0  0  0  0  0  0  0
   11.1632   -4.1087   18.6031 C   0  0  0  0  0  0  0  0  0  0  0  0
    2.5617   -8.1156   16.0014 C   0  0  0  0  0  0  0  0  0  0  0  0
   10.0319   -5.0035   16.8600 C   0  0  0  0  0  0  0  0  0  0  0  0
    1.9974   -9.2222   15.4780 C   0  0  0  0  0  0  0  0  0  0  0  0
   -1.3312  -11.4281   12.5091 P   0  0  0  0  0  0  0  0  0  0  0  0
    4.2080   -8.2446   16.0746 He  0  0  0  0  0  0  0  0  0  0  0  0
   10.3254   -4.3962   26.6749 He  0  0  0  0  0  0  0  0  0  0  0  0
    9.8117   -7.8831   16.2787 He  0  0  0  0  0  0  0  0  0  0  0  0
    7.5872   -6.8086   16.2929 He  0  0  0  0  0  0  0  0  0  0  0  0
    5.1569   -9.4047   16.1339 He  0  0  0  0  0  0  0  0  0  0  0  0
    7.3766   -2.7886   25.7807 He  0  0  0  0  0  0  0  0  0  0  0  0
    3.3547   -8.4561   17.4842 He  0  0  0  0  0  0  0  0  0  0  0  0
  1  5  1  0
  1  6  4  0
  1 12  3  0
  1 14  4  0
  1 27  1  0
  2  4  1  0
  2  7  3  0
  2 12  1  0
  2 14  2  0
  2 18  3  0
  2 26  2  0
  3 14  3  0
  3 19  4  0
  3 20  3  0
  3 25  3  0
  4  7  3  0
  4  8  4  0
  4 13  4  0
  4 16  3  0
  4 20  4  0
  5 13  1  0
  5 14  2  0
  5 16  1  0
  5 20  2  0
  6  7  3  0
  6 10  3  0
  6 14  3  0
  6 15  3  0
  6 18  2  0
  7  9  3  0
  7 10  1  0
  7 13  2  0
  7 17  4  0
  7 18  2  0
  7 20  4  0
  7 25  2  0
  7 26  4  0
  7 27  3  0
  8  9  3  0
  8 11  1  0
  8 12  3  0
  8 17  1  0
  8 21  4  0
  9 17  4  0
  9 19  3  0
  9 21  1  0
 10 12  3  0
 10 13  2  0
 11 14  4  0
 11 15  4  0
 11 19  3  0
 12 13  1  0
 12 18  1  0
 12 23  1  0
 12 24  2  0
 13 17  4  0
 13 21  3  0
 13 25  2  0
 14 20  1  0
 14 23  2  0
 14 24  4  0
 14 26  4  0
 15 17  2  0
 15 23  4  0
 15 27  2  0
 16 22  4  0
 16 25  4  0
 17 18  3  0
 17 27  4  0
 19 23  4  0
 19 25  2  0
 21 24  3  0
 22 23  3  0
M  END
$$$$

 Created by Python create_sdf_string function

 34 33  0  0  0  0  0  0  0  0999 V2000
    4.3758   -8.3992   16.6246 C   0  0  0  0  0  0  0  0  0  0  0  0
    8.8422   -7.9204   17.7850 C   0  0  0  0  0  0  0  0  0  0  0  0
    0.2959   -9.2076   15.3099 C   0  0  0  0  0  0  0  0  0  0  0  0
    9.8198   -4.1437   26.4164 C   0  0  0  0  0  0  0  0  0  0  0  0
    9.3496   -7.3291   17.0090 C   0  0  0  0  0  0  0  0  0  0  0  0
    8.4011   -4.1776   26.4878 N   0  0  0  0  0  0  0  0  0  0  0  0
   -0.2163  -10.3006   14.6109 C   0  0  0  0  0  0  0  0  0  0  0  0
    9.7719   -7.2172   17.9424 C   0  0  0  0  0  0  0  0  0  0  0  0
    8.9166   -2.2992   25.3773 N   0  0  0  0  0  0  0  0  0  0  0  0
    6.8285   -7.9143   16.7341 C   0  0  0  0  0  0  0  0  0  0  0  0
   -0.7576  -11.3156   15.2892 C   0  0  0  0  0  0  0  0  0  0  0  0
    7.3248   -6.9046   16.1049 C   0  0  0  0  0  0  0  0  0  0  0  0
   -1.6990  -12.1674   13.3323 C   0  0  0  0  0  0  0  0  0  0  0  0
   10.1103   -2.9466   25.7687 N   0  0  0  0  0  0  0  0  0  0  0  0
    2.0330   -9.7071   16.9880 N   0  0  0  0  0  0  0  0  0  0  0  0
    9.8362   -5.8706   17.6739 C   0  0  0  0  0  0  0  0  0  0  0  0
   -1.5405  -12.2668   14.6408 C   0  0  0  0  0  0  0  0  0  0  0  0
    2.0027   -8.4157   15.3412 N   0  0  0  0  0  0  0  0  0  0  0  0
   10.6091   -3.8912   17.4615 C   0  0  0  0  0  0  0  0  0  0  0  0
    5.9281   -7.6986   18.5892 C   0  0  0  0  0  0  0  0  0  0  0  0
    6.8158   -8.2301   18.1263 C   0  0  0  0  0  0  0  0  0  0  0  0
    5.6095   -8.9217   18.3162 C   0  0  0  0  0  0  0  0  0  0  0  0
   10.2661   -5.3652   19.1825 C   0  0  0  0  0  0  0  0  0  0  0  0
   -0.2966  -10.2070   13.3371 C   0  0  0  0  0  0  0  0  0  0  0  0
    7.0618   -5.7508   15.5877 O   0  0  0  0  0  0  0  0  0  0  0  0
    8.1402   -8.0016   15.0405 C   0  0  0  0  0  0  0  0  0  0  0  0
    5.5194   -8.2256   16.5528 C   0  0  0  0  0  0  0  0  0  0  0  0
   10.7224   -4.2000   18.7401 C   0  0  0  0  0  0  0  0  0  0  0  0
    3.2589   -8.0650   15.7756 C   0  0  0  0  0  0  0  0  0  0  0  0
    7.8496   -3.0457   25.9373 C   0  0  0  0  0  0  0  0  0  0  0  0
    9.9736   -4.7849   16.7334 C   0  0  0  0  0  0  0  0  0  0  0  0
    3.2373   -9.3502   17.2259 C   0  0  0  0  0  0  0  0  0  0  0  0
    1.4829   -9.2782   15.8777 C   0  0  0  0  0  0  0  0  0  0  0  0
   -1.1332  -11.1929   12.5837 C   0  0  0  0  0  0  0  0  0  0  0  0
  1 27  4  0
  1 29  4  0
  1 32  4  0
  2  8  1  0
  3  7  1  0
  3 33  1  0
  4  6  4  0
  4 14  4  0
  5 16  1  0
  6 30  4  0
  7 11  4  0
  7 24  4  0
  9 14  4  0
  9 30  4  0
 10 12  1  0
 10 21  4  0
 10 27  4  0
 11 17  4  0
 12 25  2  0
 12 26  1  0
 13 17  4  0
 13 34  4  0
 15 32  4  0
 15 33  4  0
 16 23  4  0
 16 31  4  0
 18 29  4  0
 18 33  4  0
 19 28  4  0
 19 31  4  0
 20 22  4  0
 23 28  4  0
 24 34  4  0
M  END
$$$$

 Created by Python create_sdf_string function

 34 75  0  0  0  0  0  0  0  0999 V2000
    3.7584   -7.8181   16.4463 C   0  0  0  0  0  0  0  0  0  0  0  0
    9.1758   -7.8178   17.8722 C   0  0  0  0  0  0  0  0  0  0  0  0
   -0.0339   -9.4966   15.1616 C   0  0  0  0  0  0  0  0  0  0  0  0
    9.7178   -3.8390   26.2008 C   0  0  0  0  0  0  0  0  0  0  0  0
    8.5811   -6.7602   16.8363 F   0  0  0  0  0  0  0  0  0  0  0  0
    8.4937   -4.1565   27.3362 N   0  0  0  0  0  0  0  0  0  0  0  0
   -0.3420  -10.7352   15.1215 C   0  0  0  0  0  0  0  0  0  0  0  0
    9.0187   -2.2295   25.8260 P   0  0  0  0  0  0  0  0  0  0  0  0
   -0.3931  -11.1326   15.5279 C   0  0  0  0  0  0  0  0  0  0  0  0
    6.1912   -5.0838   15.0124 C   0  0  0  0  0  0  0  0  0  0  0  0
   -1.9126  -12.3217   13.3308 C   0  0  0  0  0  0  0  0  0  0  0  0
    1.6899   -9.7286   17.2731 N   0  0  0  0  0  0  0  0  0  0  0  0
    1.6829   -8.0902   15.8812 N   0  0  0  0  0  0  0  0  0  0  0  0
   10.5330   -4.2064   17.8206 C   0  0  0  0  0  0  0  0  0  0  0  0
    7.4740   -6.7598   17.4591 S   0  0  0  0  0  0  0  0  0  0  0  0
    5.4851   -9.0039   17.9009 O   0  0  0  0  0  0  0  0  0  0  0  0
   10.1314   -5.3779   19.2393 C   0  0  0  0  0  0  0  0  0  0  0  0
   -0.3953   -9.8909   13.1400 C   0  0  0  0  0  0  0  0  0  0  0  0
    7.3995   -5.7903   15.8174 O   0  0  0  0  0  0  0  0  0  0  0  0
    4.1979   -9.0115   16.4863 Cl  0  0  0  0  0  0  0  0  0  0  0  0
   11.4250   -4.2102   18.4997 C   0  0  0  0  0  0  0  0  0  0  0  0
    4.1516   -7.5653   15.4640 Cl  0  0  0  0  0  0  0  0  0  0  0  0
    7.8604   -3.1675   26.3148 C   0  0  0  0  0  0  0  0  0  0  0  0
    9.8691   -4.9973   16.7880 C   0  0  0  0  0  0  0  0  0  0  0  0
    1.3796   -9.6148   15.8220 N   0  0  0  0  0  0  0  0  0  0  0  0
   -0.9457  -11.2234   12.1457 C   0  0  0  0  0  0  0  0  0  0  0  0
    9.7842   -7.2748   17.8973 He  0  0  0  0  0  0  0  0  0  0  0  0
    7.3665   -6.5521   15.6931 He  0  0  0  0  0  0  0  0  0  0  0  0
    9.9322   -2.8073   26.1702 He  0  0  0  0  0  0  0  0  0  0  0  0
    9.9873   -5.6107   16.7433 He  0  0  0  0  0  0  0  0  0  0  0  0
   -1.3303  -12.3516   15.2299 He  0  0  0  0  0  0  0  0  0  0  0  0
    5.1764   -8.0749   18.2951 He  0  0  0  0  0  0  0  0  0  0  0  0
    8.7196   -7.8001   14.9461 He  0  0  0  0  0  0  0  0  0  0  0  0
    3.2509   -9.4685   17.1013 He  0  0  0  0  0  0  0  0  0  0  0  0
  1  5  2  0
  1 10  4  0
  1 12  3  0
  1 20  2  0
  1 26  3  0
  2  3  1  0
  2  8  4  0
  2 12  2  0
  2 16  4  0
  2 20  2  0
  3  5  3  0
  3  7  1  0
  3  8  2  0
  3  9  3  0
  3 20  4  0
  3 24  4  0
  3 25  1  0
  4  5  4  0
  4  6  4  0
  4 11  4  0
  4 12  1  0
  5  8  4  0
  5  9  2  0
  5 18  2  0
  5 22  1  0
  5 25  4  0
  6  9  1  0
  6 12  2  0
  6 15  1  0
  6 17  4  0
  6 20  2  0
  6 23  4  0
  7  9  4  0
  7 14  1  0
  7 15  2  0
  7 18  4  0
  7 19  1  0
  7 20  1  0
  7 22  3  0
  8 20  2  0
  8 23  4  0
  9 11  1  0
  9 17  1  0
  9 24  3  0
 10 11  3  0
 10 12  3  0
 10 14  2  0
 10 22  4  0
 11 17  2  0
 11 20  2  0
 12 19  4  0
 12 20  3  0
 12 25  4  0
 13 14  3  0
 13 19  4  0
 13 20  4  0
 13 21  1  0
 13 23  1  0
 13 25  4  0
 14 21  4  0
 14 24  4  0
 15 19  1  0
 15 24  3  0
 16 25  2  0
 17 20  4  0
 17 24  4  0
 18 20  3  0
 18 25  2  0
 18 26  3  0
 19 21  4  0
 19 25  2  0
 20 21  2  0
 20 25  4  0
 21 25  2  0
 24 26  3  0
M  END
$$$$

 Created by Python create_sdf_string function

 34 35  0  0  0  0  0  0  0  0999 V2000
    3.5996   -8.2725   16.4155 C   0  0  0  0  0  0  0  0  0  0  0  0
    9.2383   -8.0033   18.0376 C   0  0  0  0  0  0  0  0  0  0  0  0
    0.0648   -9.1763   15.5934 C   0  0  0  0  0  0  0  0  0  0  0  0
    9.9347   -4.1059   26.5043 C   0  0  0  0  0  0  0  0  0  0  0  0
    8.1312   -7.0125   16.7294 C   0  0  0  0  0  0  0  0  0  0  0  0
    8.5395   -4.1612   26.9589 N   0  0  0  0  0  0  0  0  0  0  0  0
   -0.2960  -10.3724   14.8327 C   0  0  0  0  0  0  0  0  0  0  0  0
    9.8123   -6.5805   18.2559 C   0  0  0  0  0  0  0  0  0  0  0  0
    8.7639   -2.1452   25.7463 N   0  0  0  0  0  0  0  0  0  0  0  0
    7.2079   -6.8142   15.8373 C   0  0  0  0  0  0  0  0  0  0  0  0
   -0.7689  -11.5062   15.4542 C   0  0  0  0  0  0  0  0  0  0  0  0
    5.9456   -6.7825   15.3532 C   0  0  0  0  0  0  0  0  0  0  0  0
   -1.6052  -12.3309   13.4309 C   0  0  0  0  0  0  0  0  0  0  0  0
   10.0788   -2.8557   25.8502 N   0  0  0  0  0  0  0  0  0  0  0  0
    1.8106   -9.9221   17.0991 N   0  0  0  0  0  0  0  0  0  0  0  0
    9.4901   -5.8990   17.3047 C   0  0  0  0  0  0  0  0  0  0  0  0
   -1.4673  -12.4424   14.7826 C   0  0  0  0  0  0  0  0  0  0  0  0
    2.1578   -8.3267   15.5779 N   0  0  0  0  0  0  0  0  0  0  0  0
   10.6578   -3.9608   17.5452 C   0  0  0  0  0  0  0  0  0  0  0  0
    5.6340   -8.0939   17.3585 C   0  0  0  0  0  0  0  0  0  0  0  0
    7.0075   -7.4864   17.1727 C   0  0  0  0  0  0  0  0  0  0  0  0
    5.6696   -8.6922   18.0415 O   0  0  0  0  0  0  0  0  0  0  0  0
   10.4930   -5.6061   19.1632 C   0  0  0  0  0  0  0  0  0  0  0  0
   -0.3767  -10.2967   13.4571 C   0  0  0  0  0  0  0  0  0  0  0  0
    7.2804   -5.4615   15.4379 O   0  0  0  0  0  0  0  0  0  0  0  0
    8.5198   -7.9285   14.9942 C   0  0  0  0  0  0  0  0  0  0  0  0
    3.7927   -8.6797   16.8422 C   0  0  0  0  0  0  0  0  0  0  0  0
   10.8299   -4.3696   18.7981 C   0  0  0  0  0  0  0  0  0  0  0  0
    4.6611   -7.1478   15.5694 C   0  0  0  0  0  0  0  0  0  0  0  0
    7.7683   -3.0247   26.4339 C   0  0  0  0  0  0  0  0  0  0  0  0
    9.8362   -4.7245   16.7451 C   0  0  0  0  0  0  0  0  0  0  0  0
    3.0433   -9.4938   17.4055 C   0  0  0  0  0  0  0  0  0  0  0  0
    1.3527   -9.2045   16.0672 N   0  0  0  0  0  0  0  0  0  0  0  0
   -1.1238  -11.2778   12.7074 C   0  0  0  0  0  0  0  0  0  0  0  0
  1 18  4  0
  1 27  1  0
  1 32  4  0
  2  8  1  0
  3  7  1  0
  3 33  1  0
  4  6  4  0
  4 14  4  0
  5 16  1  0
  5 21  1  0
  6 30  4  0
  7 11  4  0
  7 24  4  0
  8 16  4  0
  8 23  4  0
  9 14  4  0
  9 30  4  0
 10 12  4  0
 10 25  1  0
 11 17  4  0
 12 29  4  0
 13 17  4  0
 13 34  4  0
 15 32  4  0
 15 33  4  0
 16 31  4  0
 18 27  4  0
 18 33  4  0
 19 28  4  0
 19 31  4  0
 20 21  4  0
 20 22  4  0
 23 28  4  0
 24 34  4  0
 27 32  4  0
M  END
$$$$

 Created by Python create_sdf_string function

 34 43  0  0  0  0  0  0  0  0999 V2000
    3.7739   -8.4813   16.4202 O   0  0  0  0  0  0  0  0  0  0  0  0
    8.9073   -7.0328   17.6894 C   0  0  0  0  0  0  0  0  0  0  0  0
    6.4941   -7.3141   15.6635 C   0  0  0  0  0  0  0  0  0  0  0  0
    8.4163   -3.9300   27.2450 N   0  0  0  0  0  0  0  0  0  0  0  0
   -0.4020  -10.9929   14.5770 C   0  0  0  0  0  0  0  0  0  0  0  0
    9.5292   -2.2893   26.1454 N   0  0  0  0  0  0  0  0  0  0  0  0
   -1.2525  -11.8562   13.8036 C   0  0  0  0  0  0  0  0  0  0  0  0
   10.1091   -3.4534   26.0129 N   0  0  0  0  0  0  0  0  0  0  0  0
    1.5595  -10.0342   17.1979 N   0  0  0  0  0  0  0  0  0  0  0  0
   -0.9074  -12.5408   14.8508 I   0  0  0  0  0  0  0  0  0  0  0  0
   10.7931   -3.4531   17.7893 C   0  0  0  0  0  0  0  0  0  0  0  0
    6.9486   -7.5155   17.6539 C   0  0  0  0  0  0  0  0  0  0  0  0
    0.0158   -9.4792   13.7323 C   0  0  0  0  0  0  0  0  0  0  0  0
    7.2242   -4.8504   15.1642 O   0  0  0  0  0  0  0  0  0  0  0  0
    8.2787   -7.7612   14.8835 C   0  0  0  0  0  0  0  0  0  0  0  0
    4.5107   -7.6445   15.6546 C   0  0  0  0  0  0  0  0  0  0  0  0
    7.7488   -3.2033   26.2127 C   0  0  0  0  0  0  0  0  0  0  0  0
    9.2010   -4.4065   15.8230 C   0  0  0  0  0  0  0  0  0  0  0  0
    3.4634   -9.1143   17.5324 C   0  0  0  0  0  0  0  0  0  0  0  0
    1.2071   -8.7057   15.8659 N   0  0  0  0  0  0  0  0  0  0  0  0
   -0.9103  -10.2245   12.4264 C   0  0  0  0  0  0  0  0  0  0  0  0
    0.1059   -9.4549   15.2895 He  0  0  0  0  0  0  0  0  0  0  0  0
    9.9879   -4.3234   26.9473 He  0  0  0  0  0  0  0  0  0  0  0  0
    9.7139   -6.9835   18.5245 He  0  0  0  0  0  0  0  0  0  0  0  0
    6.6150   -6.7537   14.8422 He  0  0  0  0  0  0  0  0  0  0  0  0
   -0.5940  -11.0463   15.9458 He  0  0  0  0  0  0  0  0  0  0  0  0
    4.6992   -6.5007   14.4220 He  0  0  0  0  0  0  0  0  0  0  0  0
    8.0884   -4.8156   18.5967 He  0  0  0  0  0  0  0  0  0  0  0  0
    2.2492   -8.5174   15.7858 He  0  0  0  0  0  0  0  0  0  0  0  0
    4.8740   -7.3444   18.0398 He  0  0  0  0  0  0  0  0  0  0  0  0
    5.2143   -8.9469   17.5137 He  0  0  0  0  0  0  0  0  0  0  0  0
   10.6256   -6.1638   19.3190 He  0  0  0  0  0  0  0  0  0  0  0  0
    4.3616   -7.9362   15.5361 He  0  0  0  0  0  0  0  0  0  0  0  0
   10.8800   -4.8471   18.7051 He  0  0  0  0  0  0  0  0  0  0  0  0
  1  3  1  0
  1 10  2  0
  1 19  4  0
  1 20  2  0
  2  7  1  0
  2 10  4  0
  2 12  2  0
  2 19  2  0
  2 21  3  0
  3  5  4  0
  3  7  1  0
  3  8  3  0
  3  9  1  0
  3 11  3  0
  3 13  2  0
  3 16  4  0
  3 18  3  0
  3 21  1  0
  4  9  2  0
  4 17  4  0
  5 10  4  0
  5 13  4  0
  5 20  4  0
  6  7  3  0
  6  8  4  0
  6  9  4  0
  6 17  4  0
  7 11  3  0
  9 19  4  0
 10 11  2  0
 10 12  3  0
 10 21  4  0
 11 12  3  0
 11 18  4  0
 12 13  3  0
 12 14  4  0
 12 16  2  0
 12 17  4  0
 12 19  2  0
 12 21  4  0
 13 18  4  0
 14 21  2  0
 17 21  1  0
M  END
$$$$

 Created by Python create_sdf_string function

 34 35  0  0  0  0  0  0  0  0999 V2000
    3.5312   -8.5364   16.3538 C   0  0  0  0  0  0  0  0  0  0  0  0
    8.6559   -6.6760   17.8321 C   0  0  0  0  0  0  0  0  0  0  0  0
    0.1349   -9.1207   15.9884 C   0  0  0  0  0  0  0  0  0  0  0  0
    9.8279   -4.3487   26.9445 N   0  0  0  0  0  0  0  0  0  0  0  0
    6.3791   -7.2766   15.8565 C   0  0  0  0  0  0  0  0  0  0  0  0
    8.3976   -4.1114   27.1620 N   0  0  0  0  0  0  0  0  0  0  0  0
   -0.2016  -10.2307   15.0245 C   0  0  0  0  0  0  0  0  0  0  0  0
    9.6541   -6.7447   18.6693 C   0  0  0  0  0  0  0  0  0  0  0  0
    9.2271   -2.4276   25.7645 N   0  0  0  0  0  0  0  0  0  0  0  0
    6.9654   -6.5486   15.5173 C   0  0  0  0  0  0  0  0  0  0  0  0
   -0.5987  -11.4370   15.5144 C   0  0  0  0  0  0  0  0  0  0  0  0
    5.0954   -6.9148   14.8232 C   0  0  0  0  0  0  0  0  0  0  0  0
   -1.3738  -11.8836   13.3951 C   0  0  0  0  0  0  0  0  0  0  0  0
   10.3373   -3.3280   26.0569 N   0  0  0  0  0  0  0  0  0  0  0  0
    1.8067   -9.7764   17.2232 N   0  0  0  0  0  0  0  0  0  0  0  0
    8.8041   -5.6225   17.0631 C   0  0  0  0  0  0  0  0  0  0  0  0
   -1.2847  -12.2686   14.5935 C   0  0  0  0  0  0  0  0  0  0  0  0
    2.3873   -8.4018   15.4740 C   0  0  0  0  0  0  0  0  0  0  0  0
   10.3786   -4.0874   17.6774 C   0  0  0  0  0  0  0  0  0  0  0  0
    7.3107   -7.4396   17.5755 C   0  0  0  0  0  0  0  0  0  0  0  0
    6.2642   -7.6584   17.2395 C   0  0  0  0  0  0  0  0  0  0  0  0
    5.4375   -8.7558   17.6982 N   0  0  0  0  0  0  0  0  0  0  0  0
   10.5497   -5.9207   19.0785 C   0  0  0  0  0  0  0  0  0  0  0  0
   -0.2652   -9.8903   13.6651 C   0  0  0  0  0  0  0  0  0  0  0  0
    7.3266   -5.1732   15.0732 O   0  0  0  0  0  0  0  0  0  0  0  0
    8.2814   -7.9586   14.9511 C   0  0  0  0  0  0  0  0  0  0  0  0
    4.5807   -8.1494   16.3876 C   0  0  0  0  0  0  0  0  0  0  0  0
   10.8477   -4.7361   18.6493 C   0  0  0  0  0  0  0  0  0  0  0  0
    4.9862   -7.4526   15.4449 C   0  0  0  0  0  0  0  0  0  0  0  0
    8.0043   -2.9642   26.3550 C   0  0  0  0  0  0  0  0  0  0  0  0
    9.3633   -4.4730   16.7763 C   0  0  0  0  0  0  0  0  0  0  0  0
    3.0608   -9.4707   17.3821 C   0  0  0  0  0  0  0  0  0  0  0  0
    1.4505   -9.1268   16.0780 N   0  0  0  0  0  0  0  0  0  0  0  0
   -0.9618  -10.7579   12.8144 C   0  0  0  0  0  0  0  0  0  0  0  0
  1 18  4  0
  1 27  4  0
  1 32  4  0
  2  8  4  0
  2 16  4  0
  2 20  1  0
  3  7  1  0
  3 33  1  0
  4  6  4  0
  4 14  4  0
  5 10  1  0
  5 26  1  0
  5 29  4  0
  6 30  4  0
  7 11  4  0
  7 24  4  0
  8 23  4  0
  9 14  4  0
  9 30  4  0
 10 25  2  0
 11 17  4  0
 12 29  4  0
 13 17  4  0
 13 34  4  0
 15 32  4  0
 15 33  4  0
 16 31  4  0
 18 33  4  0
 19 28  4  0
 19 31  4  0
 20 21  1  0
 22 27  1  0
 23 28  4  0
 24 34  4  0
 27 29  4  0
M  END
$$$$

 Created by Python create_sdf_string function

 34 72  0  0  0  0  0  0  0  0999 V2000
    4.1851   -9.1465   16.3113 C   0  0  0  0  0  0  0  0  0  0  0  0
    8.1647   -6.4705   17.5804 C   0  0  0  0  0  0  0  0  0  0  0  0
    0.3560   -9.4001   16.0532 C   0  0  0  0  0  0  0  0  0  0  0  0
   10.5955   -4.0799   26.9939 N   0  0  0  0  0  0  0  0  0  0  0  0
    6.3546   -5.7329   16.1366 P   0  0  0  0  0  0  0  0  0  0  0  0
    8.3299   -3.6987   27.4552 N   0  0  0  0  0  0  0  0  0  0  0  0
   -0.2485  -10.0263   15.1821 C   0  0  0  0  0  0  0  0  0  0  0  0
    9.2584   -7.3544   18.5330 Cl  0  0  0  0  0  0  0  0  0  0  0  0
    9.6246   -2.3311   25.6815 S   0  0  0  0  0  0  0  0  0  0  0  0
   -0.1593  -11.1593   15.8691 C   0  0  0  0  0  0  0  0  0  0  0  0
    5.6733   -7.3676   13.9870 O   0  0  0  0  0  0  0  0  0  0  0  0
   -0.8058  -12.1472   13.3144 C   0  0  0  0  0  0  0  0  0  0  0  0
    1.2250   -9.4760   17.6109 F   0  0  0  0  0  0  0  0  0  0  0  0
   -0.9133  -11.8252   14.9032 C   0  0  0  0  0  0  0  0  0  0  0  0
    5.5737   -7.3987   17.4979 N   0  0  0  0  0  0  0  0  0  0  0  0
    5.4773   -8.9678   17.9600 N   0  0  0  0  0  0  0  0  0  0  0  0
   10.3160   -5.9983   18.7766 C   0  0  0  0  0  0  0  0  0  0  0  0
   -0.7813  -10.0845   13.9194 C   0  0  0  0  0  0  0  0  0  0  0  0
    6.9638   -5.2599   15.0030 O   0  0  0  0  0  0  0  0  0  0  0  0
    8.5144   -8.0760   15.2321 C   0  0  0  0  0  0  0  0  0  0  0  0
    5.8204   -8.2193   15.3515 F   0  0  0  0  0  0  0  0  0  0  0  0
   10.4837   -4.4571   18.7398 C   0  0  0  0  0  0  0  0  0  0  0  0
    5.2600   -7.6500   14.6829 C   0  0  0  0  0  0  0  0  0  0  0  0
    9.4569   -4.2299   17.1807 C   0  0  0  0  0  0  0  0  0  0  0  0
    3.0119   -9.4134   17.3530 C   0  0  0  0  0  0  0  0  0  0  0  0
    1.3585   -9.0479   16.5080 N   0  0  0  0  0  0  0  0  0  0  0  0
   -0.2688  -10.7340   12.6583 P   0  0  0  0  0  0  0  0  0  0  0  0
    6.6411   -6.3516   14.7840 He  0  0  0  0  0  0  0  0  0  0  0  0
   10.2302   -3.2837   25.7160 He  0  0  0  0  0  0  0  0  0  0  0  0
    8.8054   -5.5342   14.7488 He  0  0  0  0  0  0  0  0  0  0  0  0
    2.0592   -8.1888   15.4259 He  0  0  0  0  0  0  0  0  0  0  0  0
   10.9130   -4.2015   17.4016 He  0  0  0  0  0  0  0  0  0  0  0  0
    8.0742   -7.4690   18.2059 He  0  0  0  0  0  0  0  0  0  0  0  0
    7.8719   -3.2720   26.4124 He  0  0  0  0  0  0  0  0  0  0  0  0
  1 13  3  0
  1 21  1  0
  1 25  4  0
  2  8  4  0
  2 18  4  0
  2 21  1  0
  3  5  3  0
  3  7  1  0
  3 10  1  0
  3 14  2  0
  3 26  1  0
  3 27  3  0
  4  5  2  0
  4  6  4  0
  4 21  1  0
  4 27  1  0
  5  9  3  0
  5 10  4  0
  5 14  1  0
  5 15  2  0
  5 17  1  0
  5 19  4  0
  5 20  3  0
  5 25  4  0
  5 26  1  0
  6  7  2  0
  6  9  2  0
  6 10  4  0
  7 18  4  0
  8 11  4  0
  9 11  3  0
  9 12  4  0
  9 20  4  0
 10 14  2  0
 11 13  1  0
 11 14  3  0
 11 15  2  0
 11 17  3  0
 11 21  2  0
 11 23  4  0
 12 14  4  0
 12 20  1  0
 12 22  3  0
 12 27  4  0
 13 25  4  0
 13 26  4  0
 13 27  2  0
 14 21  2  0
 14 27  2  0
 15 16  1  0
 15 17  2  0
 15 19  3  0
 15 20  3  0
 15 21  2  0
 15 25  3  0
 16 21  3  0
 17 20  2  0
 17 21  2  0
 17 22  4  0
 17 23  3  0
 18 19  1  0
 18 22  4  0
 18 27  4  0
 19 21  2  0
 19 23  1  0
 19 27  1  0
 20 21  1  0
 21 22  1  0
 21 23  4  0
 21 25  3  0
 21 26  3  0
 22 23  4  0
M  END
$$$$

 Created by Python create_sdf_string function

 34 35  0  0  0  0  0  0  0  0999 V2000
    3.5389   -8.7370   16.3910 C   0  0  0  0  0  0  0  0  0  0  0  0
    8.4950   -6.6030   17.5578 C   0  0  0  0  0  0  0  0  0  0  0  0
    0.2667   -8.8500   15.8884 C   0  0  0  0  0  0  0  0  0  0  0  0
   10.1644   -4.1096   26.9957 N   0  0  0  0  0  0  0  0  0  0  0  0
    7.2059   -6.9116   16.0724 C   0  0  0  0  0  0  0  0  0  0  0  0
    8.7372   -3.9601   27.2843 N   0  0  0  0  0  0  0  0  0  0  0  0
   -0.1479   -9.9860   15.0454 C   0  0  0  0  0  0  0  0  0  0  0  0
    9.3977   -6.7142   18.4897 C   0  0  0  0  0  0  0  0  0  0  0  0
    9.2115   -2.4805   25.4383 N   0  0  0  0  0  0  0  0  0  0  0  0
    6.6213   -7.1630   15.2028 C   0  0  0  0  0  0  0  0  0  0  0  0
   -0.4516  -11.3447   15.5981 C   0  0  0  0  0  0  0  0  0  0  0  0
    5.3823   -7.3732   14.6556 C   0  0  0  0  0  0  0  0  0  0  0  0
   -0.9293  -12.0623   13.4965 C   0  0  0  0  0  0  0  0  0  0  0  0
   10.4601   -3.2943   25.8622 C   0  0  0  0  0  0  0  0  0  0  0  0
    1.8663   -9.6651   17.4804 N   0  0  0  0  0  0  0  0  0  0  0  0
    8.4968   -5.5467   16.2820 C   0  0  0  0  0  0  0  0  0  0  0  0
   -0.9073  -12.2758   14.7974 C   0  0  0  0  0  0  0  0  0  0  0  0
    2.5609   -8.6441   15.5812 N   0  0  0  0  0  0  0  0  0  0  0  0
   10.7564   -3.9737   17.8279 C   0  0  0  0  0  0  0  0  0  0  0  0
    7.1617   -7.5882   17.4419 C   0  0  0  0  0  0  0  0  0  0  0  0
    5.7497   -8.2349   17.1116 C   0  0  0  0  0  0  0  0  0  0  0  0
    5.5634   -8.8343   18.0735 N   0  0  0  0  0  0  0  0  0  0  0  0
   10.3455   -5.9238   18.9693 C   0  0  0  0  0  0  0  0  0  0  0  0
   -0.3059   -9.8192   13.6939 C   0  0  0  0  0  0  0  0  0  0  0  0
    7.4495   -5.2411   15.3150 O   0  0  0  0  0  0  0  0  0  0  0  0
    8.4095   -8.1881   15.1035 C   0  0  0  0  0  0  0  0  0  0  0  0
    4.7206   -8.2362   16.0813 C   0  0  0  0  0  0  0  0  0  0  0  0
   10.7155   -4.7840   18.4118 C   0  0  0  0  0  0  0  0  0  0  0  0
    5.0289   -7.7227   14.7755 C   0  0  0  0  0  0  0  0  0  0  0  0
    8.0840   -3.0557   26.3818 C   0  0  0  0  0  0  0  0  0  0  0  0
    9.6940   -4.4767   16.8420 C   0  0  0  0  0  0  0  0  0  0  0  0
    3.1198   -9.4770   17.5750 C   0  0  0  0  0  0  0  0  0  0  0  0
    1.5061   -9.1188   16.3438 N   0  0  0  0  0  0  0  0  0  0  0  0
   -0.7385  -10.8798   12.9277 C   0  0  0  0  0  0  0  0  0  0  0  0
  1 18  4  0
  1 27  1  0
  1 32  4  0
  2  8  4  0
  2 16  4  0
  2 20  1  0
  3  7  1  0
  3 33  1  0
  4  6  4  0
  4 14  4  0
  5 10  4  0
  6 30  4  0
  7 11  4  0
  7 24  4  0
  8 23  4  0
  9 14  4  0
  9 30  4  0
 10 29  4  0
 11 17  4  0
 12 29  4  0
 13 17  4  0
 13 34  4  0
 15 32  4  0
 15 33  4  0
 16 25  2  0
 16 31  4  0
 18 33  4  0
 19 28  4  0
 19 31  4  0
 20 21  4  0
 21 22  1  0
 21 27  4  0
 23 28  4  0
 24 34  4  0
 27 29  4  0
M  END
$$$$

 Created by Python create_sdf_string function

 34 54  0  0  0  0  0  0  0  0999 V2000
    3.6562   -8.6623   16.4752 C   0  0  0  0  0  0  0  0  0  0  0  0
    9.1339   -6.1468   17.6165 C   0  0  0  0  0  0  0  0  0  0  0  0
    0.4543   -8.9982   15.9375 Br  0  0  0  0  0  0  0  0  0  0  0  0
   10.3164   -4.8045   26.5793 N   0  0  0  0  0  0  0  0  0  0  0  0
    9.3782   -6.3320   18.3981 C   0  0  0  0  0  0  0  0  0  0  0  0
    9.3733   -2.3308   25.2874 N   0  0  0  0  0  0  0  0  0  0  0  0
   -1.1125  -11.3607   15.4550 C   0  0  0  0  0  0  0  0  0  0  0  0
   -0.9986  -11.7450   13.0927 Br  0  0  0  0  0  0  0  0  0  0  0  0
    9.5295   -3.4992   25.1792 C   0  0  0  0  0  0  0  0  0  0  0  0
    9.1634   -5.8298   16.7511 O   0  0  0  0  0  0  0  0  0  0  0  0
   -1.1045  -12.2818   14.9974 F   0  0  0  0  0  0  0  0  0  0  0  0
    2.8325   -8.2013   15.7238 N   0  0  0  0  0  0  0  0  0  0  0  0
   10.3356   -4.1358   17.3948 C   0  0  0  0  0  0  0  0  0  0  0  0
    4.1889   -8.3481   16.6191 P   0  0  0  0  0  0  0  0  0  0  0  0
    5.4376   -8.1274   18.0344 N   0  0  0  0  0  0  0  0  0  0  0  0
   10.3731   -6.4760   18.7323 C   0  0  0  0  0  0  0  0  0  0  0  0
   -1.0227   -9.9703   13.9493 C   0  0  0  0  0  0  0  0  0  0  0  0
    7.2635   -5.5156   15.9108 O   0  0  0  0  0  0  0  0  0  0  0  0
    7.8921   -8.0247   15.1022 C   0  0  0  0  0  0  0  0  0  0  0  0
   11.0381   -4.2958   18.1832 N   0  0  0  0  0  0  0  0  0  0  0  0
    4.1841   -7.8139   14.6703 C   0  0  0  0  0  0  0  0  0  0  0  0
    9.4151   -4.6220   16.7955 C   0  0  0  0  0  0  0  0  0  0  0  0
    2.5780   -9.7775   17.8249 C   0  0  0  0  0  0  0  0  0  0  0  0
    7.1248   -8.0433   16.3106 He  0  0  0  0  0  0  0  0  0  0  0  0
    8.3784   -4.0877   27.4436 He  0  0  0  0  0  0  0  0  0  0  0  0
   -0.2685  -10.1727   14.7484 He  0  0  0  0  0  0  0  0  0  0  0  0
    5.2816   -7.1156   15.2079 He  0  0  0  0  0  0  0  0  0  0  0  0
    6.6530   -7.4781   14.1762 He  0  0  0  0  0  0  0  0  0  0  0  0
    1.3488   -9.7319   17.2487 He  0  0  0  0  0  0  0  0  0  0  0  0
    8.3307   -9.3778   17.0551 He  0  0  0  0  0  0  0  0  0  0  0  0
    5.0117   -8.2473   16.5004 He  0  0  0  0  0  0  0  0  0  0  0  0
    8.4047   -3.5884   26.4827 He  0  0  0  0  0  0  0  0  0  0  0  0
    1.6758   -9.0890   16.4435 He  0  0  0  0  0  0  0  0  0  0  0  0
   -0.8457  -10.7659   12.5456 He  0  0  0  0  0  0  0  0  0  0  0  0
  1  4  4  0
  1  8  1  0
  1 12  4  0
  1 22  3  0
  1 23  4  0
  2  5  4  0
  2 22  4  0
  3  8  4  0
  3 10  1  0
  3 16  1  0
  4  9  4  0
  4 16  3  0
  5  8  4  0
  5 14  2  0
  5 22  4  0
  6  9  4  0
  6 15  2  0
  7 11  3  0
  7 14  2  0
  7 17  3  0
  7 19  4  0
  8 11  4  0
  8 16  2  0
  8 19  1  0
  8 21  1  0
  9 14  1  0
  9 21  4  0
 10 11  1  0
 10 12  1  0
 10 15  3  0
 10 19  3  0
 10 21  2  0
 10 22  1  0
 10 23  3  0
 11 13  1  0
 11 21  4  0
 11 23  2  0
 12 19  3  0
 12 21  4  0
 13 20  3  0
 13 22  4  0
 14 17  1  0
 14 18  1  0
 14 20  1  0
 14 22  2  0
 14 23  3  0
 15 16  3  0
 15 18  3  0
 15 21  1  0
 16 20  1  0
 17 18  3  0
 19 22  3  0
 20 21  1  0
 20 23  4  0
M  END
$$$$

 Created by Python create_sdf_string function

 34 31  0  0  0  0  0  0  0  0999 V2000
    3.5284   -8.8288   16.7504 C   0  0  0  0  0  0  0  0  0  0  0  0
    9.1462   -5.9797   17.2551 C   0  0  0  0  0  0  0  0  0  0  0  0
    0.2076   -8.9582   15.7572 C   0  0  0  0  0  0  0  0  0  0  0  0
    9.9376   -4.5247   26.4255 N   0  0  0  0  0  0  0  0  0  0  0  0
    7.1774   -7.8393   16.3092 C   0  0  0  0  0  0  0  0  0  0  0  0
    8.6179   -4.1556   27.1119 N   0  0  0  0  0  0  0  0  0  0  0  0
   -0.3326  -10.0488   15.0163 C   0  0  0  0  0  0  0  0  0  0  0  0
    9.8037   -6.4895   18.3890 C   0  0  0  0  0  0  0  0  0  0  0  0
    9.0322   -2.6345   25.3149 N   0  0  0  0  0  0  0  0  0  0  0  0
    5.2363   -7.5284   15.3220 C   0  0  0  0  0  0  0  0  0  0  0  0
   -0.7334  -11.3080   15.4572 C   0  0  0  0  0  0  0  0  0  0  0  0
    6.2041   -7.5518   15.0889 C   0  0  0  0  0  0  0  0  0  0  0  0
   -1.2919  -12.0108   13.3237 C   0  0  0  0  0  0  0  0  0  0  0  0
   10.0510   -3.6273   25.3791 C   0  0  0  0  0  0  0  0  0  0  0  0
    1.5457   -9.8229   17.4662 N   0  0  0  0  0  0  0  0  0  0  0  0
    8.1395   -6.5508   16.4578 C   0  0  0  0  0  0  0  0  0  0  0  0
   -1.1804  -12.2777   14.6443 C   0  0  0  0  0  0  0  0  0  0  0  0
    2.6719   -8.4737   15.6117 N   0  0  0  0  0  0  0  0  0  0  0  0
   10.4646   -4.0835   17.4655 C   0  0  0  0  0  0  0  0  0  0  0  0
    7.8067   -8.3690   17.3608 C   0  0  0  0  0  0  0  0  0  0  0  0
    4.6335   -8.4261   16.8094 C   0  0  0  0  0  0  0  0  0  0  0  0
    5.7067   -8.3879   18.1335 N   0  0  0  0  0  0  0  0  0  0  0  0
   10.6653   -5.7347   19.0206 C   0  0  0  0  0  0  0  0  0  0  0  0
   -0.5262   -9.8108   13.6538 C   0  0  0  0  0  0  0  0  0  0  0  0
    7.2420   -5.5765   15.5778 O   0  0  0  0  0  0  0  0  0  0  0  0
    7.9807   -8.1720   15.1404 C   0  0  0  0  0  0  0  0  0  0  0  0
    5.1781   -8.1502   16.4946 C   0  0  0  0  0  0  0  0  0  0  0  0
   11.0669   -4.5546   18.5268 N   0  0  0  0  0  0  0  0  0  0  0  0
    3.6560   -7.7801   14.8053 C   0  0  0  0  0  0  0  0  0  0  0  0
    8.1311   -3.0521   26.4167 N   0  0  0  0  0  0  0  0  0  0  0  0
    9.5120   -4.6829   16.8097 C   0  0  0  0  0  0  0  0  0  0  0  0
    2.8946   -9.6789   17.7221 C   0  0  0  0  0  0  0  0  0  0  0  0
    1.2805   -9.2332   16.3788 N   0  0  0  0  0  0  0  0  0  0  0  0
   -1.0200  -10.7851   12.8244 C   0  0  0  0  0  0  0  0  0  0  0  0
  1 18  4  0
  1 21  4  0
  1 32  4  0
  2  8  4  0
  2 16  1  0
  2 31  4  0
  3  7  1  0
  3 33  1  0
  4  6  4  0
  4 14  4  0
  5 26  1  0
  6 30  4  0
  7 11  4  0
  7 24  4  0
  8 23  4  0
  9 14  4  0
  9 30  4  0
 10 29  4  0
 11 17  4  0
 13 17  4  0
 13 34  4  0
 15 32  4  0
 15 33  4  0
 16 25  2  0
 18 29  4  0
 18 33  4  0
 19 28  4  0
 19 31  4  0
 21 27  4  0
 23 28  4  0
 24 34  4  0
M  END
$$$$

 Created by Python create_sdf_string function

 34 89  0  0  0  0  0  0  0  0999 V2000
    3.0919   -8.8812   16.7477 C   0  0  0  0  0  0  0  0  0  0  0  0
    9.0136   -5.7419   17.1126 C   0  0  0  0  0  0  0  0  0  0  0  0
   -0.4084   -9.7749   16.1789 O   0  0  0  0  0  0  0  0  0  0  0  0
   10.1428   -4.4098   26.3283 N   0  0  0  0  0  0  0  0  0  0  0  0
    8.1522   -8.5730   17.2834 C   0  0  0  0  0  0  0  0  0  0  0  0
    9.0341   -3.8792   27.0651 N   0  0  0  0  0  0  0  0  0  0  0  0
   -0.1959  -10.5735   14.5210 C   0  0  0  0  0  0  0  0  0  0  0  0
    9.9911   -6.1783   18.2613 C   0  0  0  0  0  0  0  0  0  0  0  0
    5.0991   -8.6681   13.5987 Cl  0  0  0  0  0  0  0  0  0  0  0  0
   -0.8835  -11.3794   15.3648 C   0  0  0  0  0  0  0  0  0  0  0  0
    5.9862   -8.2598   15.2252 N   0  0  0  0  0  0  0  0  0  0  0  0
   -1.4165  -11.8696   13.8969 C   0  0  0  0  0  0  0  0  0  0  0  0
    1.6202   -9.9766   17.3781 F   0  0  0  0  0  0  0  0  0  0  0  0
   -1.1052  -12.7537   14.3402 C   0  0  0  0  0  0  0  0  0  0  0  0
    2.5884   -8.4853   15.6099 N   0  0  0  0  0  0  0  0  0  0  0  0
   10.6000   -4.4372   17.7714 C   0  0  0  0  0  0  0  0  0  0  0  0
    8.8931   -7.7144   16.0074 O   0  0  0  0  0  0  0  0  0  0  0  0
    6.4803   -8.2754   17.8520 C   0  0  0  0  0  0  0  0  0  0  0  0
   10.0662   -5.7680   19.0639 C   0  0  0  0  0  0  0  0  0  0  0  0
   -0.3463  -10.0629   13.2982 C   0  0  0  0  0  0  0  0  0  0  0  0
    6.1799   -5.2463   15.3467 O   0  0  0  0  0  0  0  0  0  0  0  0
    7.8960   -8.4138   15.2895 C   0  0  0  0  0  0  0  0  0  0  0  0
   11.6437   -4.2476   18.3400 N   0  0  0  0  0  0  0  0  0  0  0  0
    3.3486   -8.2695   14.7324 C   0  0  0  0  0  0  0  0  0  0  0  0
    7.4018   -3.1591   25.9736 N   0  0  0  0  0  0  0  0  0  0  0  0
    8.6940   -4.6984   16.6527 C   0  0  0  0  0  0  0  0  0  0  0  0
    2.9541  -10.1077   17.4591 C   0  0  0  0  0  0  0  0  0  0  0  0
   -1.3217  -10.6884   12.8864 C   0  0  0  0  0  0  0  0  0  0  0  0
    8.9526   -2.3720   25.3757 He  0  0  0  0  0  0  0  0  0  0  0  0
    9.9305   -3.3833   25.2573 He  0  0  0  0  0  0  0  0  0  0  0  0
    8.2870   -5.4111   18.1594 He  0  0  0  0  0  0  0  0  0  0  0  0
    3.9026   -9.3822   17.3000 He  0  0  0  0  0  0  0  0  0  0  0  0
    4.5416   -9.3968   16.2726 He  0  0  0  0  0  0  0  0  0  0  0  0
    1.4569   -9.0943   15.9196 He  0  0  0  0  0  0  0  0  0  0  0  0
  1  5  3  0
  1  9  2  0
  1 15  4  0
  1 17  4  0
  1 18  1  0
  1 27  4  0
  1 28  4  0
  2  3  4  0
  2  9  3  0
  2 22  4  0
  2 25  1  0
  2 26  4  0
  3  5  2  0
  3  7  1  0
  3 23  4  0
  4  6  1  0
  4  8  4  0
  4  9  4  0
  4 11  2  0
  4 14  1  0
  5  6  1  0
  5  9  4  0
  5 12  3  0
  5 14  1  0
  5 16  3  0
  5 19  1  0
  5 25  1  0
  5 28  4  0
  6 10  2  0
  6 11  2  0
  6 15  3  0
  6 17  3  0
  6 21  3  0
  6 25  4  0
  6 27  1  0
  7  8  2  0
  7 10  4  0
  7 12  2  0
  7 15  2  0
  7 19  2  0
  8 10  2  0
  8 17  3  0
  8 18  1  0
  8 19  4  0
  9 11  2  0
  9 13  2  0
  9 14  4  0
  9 19  4  0
  9 20  2  0
  9 27  3  0
 10 14  4  0
 10 15  1  0
 10 20  4  0
 10 21  4  0
 10 26  3  0
 10 28  3  0
 11 12  2  0
 11 14  2  0
 11 15  4  0
 11 18  3  0
 11 27  3  0
 12 14  4  0
 12 16  1  0
 12 17  1  0
 12 18  1  0
 12 28  3  0
 13 17  3  0
 13 19  2  0
 13 26  1  0
 13 27  4  0
 14 17  2  0
 14 22  3  0
 15 20  3  0
 15 24  4  0
 16 23  4  0
 16 25  1  0
 16 26  1  0
 17 21  1  0
 17 24  3  0
 17 26  1  0
 19 20  3  0
 19 23  4  0
 19 24  3  0
 19 28  1  0
 20 27  4  0
 20 28  4  0
 22 26  1  0
 24 25  2  0
 25 26  3  0
M  END
$$$$

 Created by Python create_sdf_string function

 34 33  0  0  0  0  0  0  0  0999 V2000
    3.4787   -9.1644   16.7765 C   0  0  0  0  0  0  0  0  0  0  0  0
    9.1397   -5.7988   17.2838 C   0  0  0  0  0  0  0  0  0  0  0  0
    0.0719   -9.1957   15.7735 C   0  0  0  0  0  0  0  0  0  0  0  0
   10.0038   -4.2138   26.3220 N   0  0  0  0  0  0  0  0  0  0  0  0
    7.6783   -8.1647   17.1089 C   0  0  0  0  0  0  0  0  0  0  0  0
    8.7552   -4.0736   26.9630 N   0  0  0  0  0  0  0  0  0  0  0  0
   -0.3509  -10.3099   14.8985 C   0  0  0  0  0  0  0  0  0  0  0  0
    9.6837   -6.3281   18.4811 C   0  0  0  0  0  0  0  0  0  0  0  0
    8.8280   -2.5650   25.2636 N   0  0  0  0  0  0  0  0  0  0  0  0
    5.0083   -8.0894   14.7170 C   0  0  0  0  0  0  0  0  0  0  0  0
   -0.7002  -11.5828   15.3293 C   0  0  0  0  0  0  0  0  0  0  0  0
    6.0391   -8.1930   15.6712 N   0  0  0  0  0  0  0  0  0  0  0  0
   -1.5766  -12.0971   13.1832 C   0  0  0  0  0  0  0  0  0  0  0  0
   10.0059   -3.3222   25.2748 N   0  0  0  0  0  0  0  0  0  0  0  0
    1.4808   -9.9791   17.4257 N   0  0  0  0  0  0  0  0  0  0  0  0
    8.0186   -6.7115   17.2240 C   0  0  0  0  0  0  0  0  0  0  0  0
   -1.3593  -12.4855   14.4773 C   0  0  0  0  0  0  0  0  0  0  0  0
    2.2826   -8.8380   15.4223 N   0  0  0  0  0  0  0  0  0  0  0  0
   10.4738   -3.9484   17.3629 C   0  0  0  0  0  0  0  0  0  0  0  0
    7.8647   -6.9889   16.0029 C   0  0  0  0  0  0  0  0  0  0  0  0
    4.6762   -8.8909   17.0327 C   0  0  0  0  0  0  0  0  0  0  0  0
    6.4799   -8.2489   17.8340 C   0  0  0  0  0  0  0  0  0  0  0  0
   10.5793   -5.5591   18.9711 C   0  0  0  0  0  0  0  0  0  0  0  0
   -0.5427   -9.9990   13.5576 C   0  0  0  0  0  0  0  0  0  0  0  0
    6.7652   -5.8286   15.4455 O   0  0  0  0  0  0  0  0  0  0  0  0
    7.8675   -8.3412   15.3126 C   0  0  0  0  0  0  0  0  0  0  0  0
    4.9243   -8.6198   16.2122 C   0  0  0  0  0  0  0  0  0  0  0  0
   10.9760   -4.3647   18.4204 N   0  0  0  0  0  0  0  0  0  0  0  0
    3.2545   -8.3017   14.7399 C   0  0  0  0  0  0  0  0  0  0  0  0
    7.9520   -3.0948   26.2510 N   0  0  0  0  0  0  0  0  0  0  0  0
    9.5185   -4.6092   16.7197 C   0  0  0  0  0  0  0  0  0  0  0  0
    2.7439   -9.8506   17.6884 C   0  0  0  0  0  0  0  0  0  0  0  0
    1.2760   -9.3541   16.1998 N   0  0  0  0  0  0  0  0  0  0  0  0
   -1.2024  -10.8932   12.7216 C   0  0  0  0  0  0  0  0  0  0  0  0
  1 18  4  0
  1 21  4  0
  1 32  4  0
  2  8  4  0
  2 16  1  0
  2 31  4  0
  3  7  1  0
  3 33  1  0
  4  6  4  0
  4 14  4  0
  5 16  1  0
  5 22  1  0
  5 26  1  0
  6 30  4  0
  7 11  4  0
  7 24  4  0
  8 23  4  0
  9 14  4  0
  9 30  4  0
 10 29  4  0
 11 17  4  0
 13 17  4  0
 13 34  4  0
 15 32  4  0
 15 33  4  0
 18 29  4  0
 18 33  4  0
 19 28  4  0
 19 31  4  0
 20 26  1  0
 21 27  4  0
 23 28  4  0
 24 34  4  0
M  END
$$$$

 Created by Python create_sdf_string function

 34 69  0  0  0  0  0  0  0  0999 V2000
    9.2888   -6.5213   16.8976 C   0  0  0  0  0  0  0  0  0  0  0  0
   -0.3520   -9.2602   16.0876 C   0  0  0  0  0  0  0  0  0  0  0  0
    6.6635   -7.5639   16.2610 C   0  0  0  0  0  0  0  0  0  0  0  0
    9.0984   -4.1068   26.7399 N   0  0  0  0  0  0  0  0  0  0  0  0
    0.0169  -10.0508   14.2426 F   0  0  0  0  0  0  0  0  0  0  0  0
    9.7898   -5.9961   18.5781 C   0  0  0  0  0  0  0  0  0  0  0  0
    9.1624   -2.6868   25.0868 N   0  0  0  0  0  0  0  0  0  0  0  0
   -0.6781  -11.6654   15.2264 C   0  0  0  0  0  0  0  0  0  0  0  0
    6.1744   -7.3394   15.3715 Br  0  0  0  0  0  0  0  0  0  0  0  0
   -1.6227  -12.3064   12.8807 C   0  0  0  0  0  0  0  0  0  0  0  0
    1.5783   -9.7383   17.4380 O   0  0  0  0  0  0  0  0  0  0  0  0
   -1.2948  -12.4699   15.2695 C   0  0  0  0  0  0  0  0  0  0  0  0
    2.3122   -9.2844   15.5500 N   0  0  0  0  0  0  0  0  0  0  0  0
   10.9929   -4.2108   17.4391 C   0  0  0  0  0  0  0  0  0  0  0  0
    6.9542   -8.6097   17.4224 C   0  0  0  0  0  0  0  0  0  0  0  0
   10.3926   -6.2330   18.9407 C   0  0  0  0  0  0  0  0  0  0  0  0
   -1.1796  -10.1382   13.7915 C   0  0  0  0  0  0  0  0  0  0  0  0
    6.9771   -6.0768   14.6922 O   0  0  0  0  0  0  0  0  0  0  0  0
    6.2329   -8.2059   15.0190 C   0  0  0  0  0  0  0  0  0  0  0  0
   11.4622   -3.9476   18.3884 B   0  0  0  0  0  0  0  0  0  0  0  0
    3.0784   -7.8723   14.5438 C   0  0  0  0  0  0  0  0  0  0  0  0
    9.0800   -4.7578   16.8375 C   0  0  0  0  0  0  0  0  0  0  0  0
    2.5841   -9.9112   17.7892 P   0  0  0  0  0  0  0  0  0  0  0  0
    1.0199   -9.5440   15.8535 N   0  0  0  0  0  0  0  0  0  0  0  0
   -1.4154  -10.9629   12.8201 C   0  0  0  0  0  0  0  0  0  0  0  0
    3.2279   -9.4941   16.5052 He  0  0  0  0  0  0  0  0  0  0  0  0
    9.8297   -4.5240   25.9064 He  0  0  0  0  0  0  0  0  0  0  0  0
    4.1959   -6.9639   14.6427 He  0  0  0  0  0  0  0  0  0  0  0  0
    9.8127   -3.9915   25.1332 He  0  0  0  0  0  0  0  0  0  0  0  0
    7.7099   -5.1390   17.3504 He  0  0  0  0  0  0  0  0  0  0  0  0
    9.4437   -7.2287   16.4686 He  0  0  0  0  0  0  0  0  0  0  0  0
    4.9619  -10.4845   17.6417 He  0  0  0  0  0  0  0  0  0  0  0  0
    8.0021   -7.5272   14.9358 He  0  0  0  0  0  0  0  0  0  0  0  0
    7.9254   -3.7773   26.2234 He  0  0  0  0  0  0  0  0  0  0  0  0
  1  2  1  0
  1  6  4  0
  1 13  3  0
  1 20  2  0
  1 22  4  0
  2  3  3  0
  2  5  1  0
  2  9  3  0
  2 22  3  0
  2 23  1  0
  2 24  1  0
  3  4  1  0
  3  5  1  0
  3  6  2  0
  3  7  1  0
  3  9  2  0
  3 17  4  0
  3 24  4  0
  3 25  4  0
  4 12  3  0
  4 14  2  0
  4 17  3  0
  4 18  2  0
  5  8  3  0
  5  9  1  0
  5 19  1  0
  5 24  4  0
  5 25  2  0
  6 11  1  0
  6 12  1  0
  6 16  4  0
  7 19  2  0
  7 22  1  0
  8 12  4  0
  8 19  1  0
  8 24  2  0
  8 25  1  0
  9 12  4  0
  9 19  4  0
  9 20  1  0
 10 12  4  0
 10 19  4  0
 10 25  4  0
 11 16  4  0
 11 19  4  0
 11 23  4  0
 11 24  4  0
 12 18  2  0
 12 19  3  0
 13 19  4  0
 13 20  4  0
 13 21  4  0
 14 19  1  0
 14 20  4  0
 14 21  4  0
 14 22  4  0
 14 23  3  0
 15 19  1  0
 15 23  1  0
 16 20  4  0
 16 24  1  0
 16 25  2  0
 17 18  2  0
 17 24  4  0
 17 25  4  0
 19 22  3  0
 20 24  1  0
 21 22  4  0
 21 25  4  0
M  END
$$$$

 Created by Python create_sdf_string function

 34 32  0  0  0  0  0  0  0  0999 V2000
    3.3534   -9.3410   16.7532 C   0  0  0  0  0  0  0  0  0  0  0  0
    9.1661   -5.9051   17.2934 C   0  0  0  0  0  0  0  0  0  0  0  0
   -0.0010   -9.1327   15.6118 C   0  0  0  0  0  0  0  0  0  0  0  0
   10.0507   -4.5521   26.0795 N   0  0  0  0  0  0  0  0  0  0  0  0
    6.8381   -7.7101   16.1864 C   0  0  0  0  0  0  0  0  0  0  0  0
    8.8927   -4.3057   26.8480 N   0  0  0  0  0  0  0  0  0  0  0  0
   -0.4674  -10.2748   14.8936 C   0  0  0  0  0  0  0  0  0  0  0  0
    9.8036   -6.3210   18.4743 C   0  0  0  0  0  0  0  0  0  0  0  0
    8.9275   -2.8241   25.1162 N   0  0  0  0  0  0  0  0  0  0  0  0
    4.2715   -7.5859   14.8022 C   0  0  0  0  0  0  0  0  0  0  0  0
   -0.7207  -11.6454   15.3611 C   0  0  0  0  0  0  0  0  0  0  0  0
    6.2278   -7.5474   15.6136 C   0  0  0  0  0  0  0  0  0  0  0  0
   -1.6847  -12.2754   13.2967 C   0  0  0  0  0  0  0  0  0  0  0  0
   10.0578   -3.6936   25.0129 N   0  0  0  0  0  0  0  0  0  0  0  0
    1.3625  -10.1078   17.3869 N   0  0  0  0  0  0  0  0  0  0  0  0
    7.9951   -6.4649   16.8963 C   0  0  0  0  0  0  0  0  0  0  0  0
   -1.3179  -12.5856   14.5559 C   0  0  0  0  0  0  0  0  0  0  0  0
    2.5174   -8.9146   15.7920 C   0  0  0  0  0  0  0  0  0  0  0  0
   10.5565   -3.9890   17.3224 C   0  0  0  0  0  0  0  0  0  0  0  0
    8.3365   -7.5389   16.6041 C   0  0  0  0  0  0  0  0  0  0  0  0
    4.6563   -9.1916   16.9648 C   0  0  0  0  0  0  0  0  0  0  0  0
    6.7545   -8.6605   17.4251 C   0  0  0  0  0  0  0  0  0  0  0  0
   10.6648   -5.5998   19.0598 C   0  0  0  0  0  0  0  0  0  0  0  0
   -0.8499  -10.0785   13.5357 C   0  0  0  0  0  0  0  0  0  0  0  0
    6.8047   -5.7332   14.8726 O   0  0  0  0  0  0  0  0  0  0  0  0
    8.0664   -7.6458   14.9650 C   0  0  0  0  0  0  0  0  0  0  0  0
    5.3061   -8.2834   16.0613 C   0  0  0  0  0  0  0  0  0  0  0  0
   11.1099   -4.4022   18.4727 N   0  0  0  0  0  0  0  0  0  0  0  0
    2.9949   -8.0735   14.7743 C   0  0  0  0  0  0  0  0  0  0  0  0
    8.1278   -3.3003   26.2063 C   0  0  0  0  0  0  0  0  0  0  0  0
    9.6450   -4.6555   16.7426 C   0  0  0  0  0  0  0  0  0  0  0  0
    2.6540  -10.0682   17.6749 N   0  0  0  0  0  0  0  0  0  0  0  0
    1.2449   -9.3420   16.1447 N   0  0  0  0  0  0  0  0  0  0  0  0
   -1.4711  -11.0468   12.7840 C   0  0  0  0  0  0  0  0  0  0  0  0
  1 18  4  0
  1 21  4  0
  1 32  4  0
  2  8  4  0
  2 16  1  0
  2 31  4  0
  3  7  1  0
  3 33  1  0
  4  6  4  0
  4 14  4  0
  6 30  4  0
  7 11  4  0
  7 24  4  0
  8 23  4  0
  9 14  4  0
  9 30  4  0
 10 27  4  0
 10 29  4  0
 11 17  4  0
 12 27  4  0
 13 17  4  0
 13 34  4  0
 15 32  4  0
 15 33  4  0
 16 20  1  0
 18 29  4  0
 18 33  4  0
 19 28  4  0
 19 31  4  0
 21 27  4  0
 23 28  4  0
 24 34  4  0
M  END
$$$$

 Created by Python create_sdf_string function

 34 81  0  0  0  0  0  0  0  0999 V2000
    3.1633   -9.4981   16.8946 C   0  0  0  0  0  0  0  0  0  0  0  0
    8.5928   -5.7913   17.7444 P   0  0  0  0  0  0  0  0  0  0  0  0
    9.5007   -4.8101   26.3825 N   0  0  0  0  0  0  0  0  0  0  0  0
    8.7959   -4.4410   26.6483 N   0  0  0  0  0  0  0  0  0  0  0  0
   -0.2571  -10.5327   15.1194 C   0  0  0  0  0  0  0  0  0  0  0  0
   10.2442   -6.7991   18.3784 C   0  0  0  0  0  0  0  0  0  0  0  0
    8.9425   -2.6631   25.0842 N   0  0  0  0  0  0  0  0  0  0  0  0
    3.4426   -7.5704   13.8530 N   0  0  0  0  0  0  0  0  0  0  0  0
   -0.7387  -11.8754   15.3061 C   0  0  0  0  0  0  0  0  0  0  0  0
    8.1882   -7.8481   15.5131 O   0  0  0  0  0  0  0  0  0  0  0  0
   -1.5296  -12.1406   13.2738 C   0  0  0  0  0  0  0  0  0  0  0  0
    9.6847   -3.2779   24.4143 C   0  0  0  0  0  0  0  0  0  0  0  0
    0.9287   -9.9501   17.0891 O   0  0  0  0  0  0  0  0  0  0  0  0
    7.6327   -6.5291   18.0090 C   0  0  0  0  0  0  0  0  0  0  0  0
   -0.6771  -12.9707   14.3936 C   0  0  0  0  0  0  0  0  0  0  0  0
   10.6846   -3.8721   17.5896 C   0  0  0  0  0  0  0  0  0  0  0  0
    8.2600   -8.3564   16.6323 F   0  0  0  0  0  0  0  0  0  0  0  0
    6.4185   -8.9400   17.2152 C   0  0  0  0  0  0  0  0  0  0  0  0
   -0.2931  -10.0623   13.5597 Cl  0  0  0  0  0  0  0  0  0  0  0  0
    6.3885   -5.8371   15.0779 O   0  0  0  0  0  0  0  0  0  0  0  0
    7.5217   -7.2634   15.1733 C   0  0  0  0  0  0  0  0  0  0  0  0
    5.0843   -6.8650   16.2232 C   0  0  0  0  0  0  0  0  0  0  0  0
   11.0218   -3.5704   18.3036 N   0  0  0  0  0  0  0  0  0  0  0  0
    3.0721   -8.0186   14.1616 C   0  0  0  0  0  0  0  0  0  0  0  0
    7.7761   -3.3688   26.1805 C   0  0  0  0  0  0  0  0  0  0  0  0
   -1.4296  -10.8292   12.7568 C   0  0  0  0  0  0  0  0  0  0  0  0
   -0.0704   -9.2088   15.4228 He  0  0  0  0  0  0  0  0  0  0  0  0
    6.0591   -7.1724   15.4165 He  0  0  0  0  0  0  0  0  0  0  0  0
    2.1749   -8.9231   15.5677 He  0  0  0  0  0  0  0  0  0  0  0  0
    3.8017   -9.8427   17.1386 He  0  0  0  0  0  0  0  0  0  0  0  0
   10.5963   -5.6782   18.6700 He  0  0  0  0  0  0  0  0  0  0  0  0
    9.6388   -4.7962   16.6997 He  0  0  0  0  0  0  0  0  0  0  0  0
    2.9799   -9.5019   17.5578 He  0  0  0  0  0  0  0  0  0  0  0  0
    1.1356   -9.2608   16.3678 He  0  0  0  0  0  0  0  0  0  0  0  0
  1  8  1  0
  1 16  1  0
  1 17  2  0
  1 19  1  0
  2 14  3  0
  2 16  3  0
  2 17  4  0
  3  4  4  0
  3 12  4  0
  3 14  4  0
  3 20  1  0
  3 22  2  0
  3 26  4  0
  4 16  2  0
  4 21  1  0
  4 22  3  0
  4 24  3  0
  4 25  3  0
  5  7  1  0
  5  9  4  0
  5 10  3  0
  5 23  1  0
  6  8  4  0
  6 10  4  0
  6 11  2  0
  6 20  2  0
  6 24  4  0
  6 25  3  0
  7 10  4  0
  7 22  3  0
  7 25  2  0
  8  9  4  0
  8 17  4  0
  8 18  3  0
  8 20  3  0
  8 21  4  0
  8 22  2  0
  8 23  2  0
  8 26  2  0
  9 10  4  0
  9 13  2  0
  9 15  4  0
  9 22  1  0
  9 24  1  0
 10 14  3  0
 10 15  1  0
 10 20  3  0
 10 25  2  0
 11 13  3  0
 11 15  4  0
 11 17  2  0
 11 22  2  0
 11 26  4  0
 12 14  4  0
 12 17  2  0
 12 21  1  0
 13 15  4  0
 13 18  3  0
 13 22  4  0
 13 23  3  0
 14 17  1  0
 14 18  3  0
 14 19  3  0
 14 24  2  0
 15 17  4  0
 16 23  4  0
 17 21  2  0
 17 22  4  0
 17 26  1  0
 18 20  2  0
 19 22  3  0
 19 23  3  0
 19 26  4  0
 20 23  3  0
 20 25  4  0
 21 23  3  0
 22 25  1  0
 22 26  1  0
 23 25  2  0
 24 25  4  0
 25 26  2  0
M  END
$$$$

 Created by Python create_sdf_string function

 34 39  0  0  0  0  0  0  0  0999 V2000
    3.2728   -9.0760   16.7119 C   0  0  0  0  0  0  0  0  0  0  0  0
    9.1342   -5.9800   17.4943 C   0  0  0  0  0  0  0  0  0  0  0  0
   -0.0786   -9.3974   15.8918 C   0  0  0  0  0  0  0  0  0  0  0  0
    9.8801   -4.4624   25.9954 N   0  0  0  0  0  0  0  0  0  0  0  0
    6.0432   -7.4826   15.7074 N   0  0  0  0  0  0  0  0  0  0  0  0
    8.6536   -4.2984   26.7545 N   0  0  0  0  0  0  0  0  0  0  0  0
   -0.4324  -10.4424   14.9218 C   0  0  0  0  0  0  0  0  0  0  0  0
    9.8878   -6.3770   18.4911 C   0  0  0  0  0  0  0  0  0  0  0  0
    8.8032   -2.6920   25.1846 N   0  0  0  0  0  0  0  0  0  0  0  0
    3.8261   -7.5010   14.6937 C   0  0  0  0  0  0  0  0  0  0  0  0
   -0.6283  -11.7596   15.3029 C   0  0  0  0  0  0  0  0  0  0  0  0
    8.2042   -7.9756   15.5439 C   0  0  0  0  0  0  0  0  0  0  0  0
   -1.4316  -12.2801   13.1771 C   0  0  0  0  0  0  0  0  0  0  0  0
    9.9127   -3.5168   24.9896 C   0  0  0  0  0  0  0  0  0  0  0  0
    1.3404   -9.9580   17.3084 N   0  0  0  0  0  0  0  0  0  0  0  0
    7.9640   -6.8125   17.4418 C   0  0  0  0  0  0  0  0  0  0  0  0
   -1.1954  -12.6387   14.4554 C   0  0  0  0  0  0  0  0  0  0  0  0
    2.2619   -8.8230   15.7266 C   0  0  0  0  0  0  0  0  0  0  0  0
   10.3360   -3.9025   17.3740 C   0  0  0  0  0  0  0  0  0  0  0  0
    7.9027   -8.0877   17.1790 C   0  0  0  0  0  0  0  0  0  0  0  0
    4.2342   -8.8229   16.7147 C   0  0  0  0  0  0  0  0  0  0  0  0
    6.2696   -8.6911   17.1813 C   0  0  0  0  0  0  0  0  0  0  0  0
   10.6801   -5.4342   19.0575 C   0  0  0  0  0  0  0  0  0  0  0  0
   -0.6747  -10.0272   13.6278 C   0  0  0  0  0  0  0  0  0  0  0  0
    6.4441   -6.0677   15.0683 O   0  0  0  0  0  0  0  0  0  0  0  0
    7.5233   -7.1990   15.1326 C   0  0  0  0  0  0  0  0  0  0  0  0
    4.8191   -7.7967   15.6997 C   0  0  0  0  0  0  0  0  0  0  0  0
   10.8841   -4.2263   18.4927 N   0  0  0  0  0  0  0  0  0  0  0  0
    2.6159   -8.0160   14.7096 C   0  0  0  0  0  0  0  0  0  0  0  0
    7.9902   -3.2272   26.2480 C   0  0  0  0  0  0  0  0  0  0  0  0
    9.4410   -4.7547   16.8250 C   0  0  0  0  0  0  0  0  0  0  0  0
    2.7310   -9.8203   17.6781 N   0  0  0  0  0  0  0  0  0  0  0  0
    1.2155   -9.3917   16.2807 N   0  0  0  0  0  0  0  0  0  0  0  0
   -1.1893  -10.9994   12.7487 C   0  0  0  0  0  0  0  0  0  0  0  0
  1 18  4  0
  1 21  4  0
  1 32  4  0
  2  8  4  0
  2 16  1  0
  2 31  4  0
  3  7  1  0
  3 33  1  0
  4  6  4  0
  4 14  4  0
  5 22  1  0
  5 25  1  0
  5 26  1  0
  5 27  1  0
  6 30  4  0
  7 11  4  0
  7 24  4  0
  8 23  4  0
  9 14  4  0
  9 30  4  0
 10 27  4  0
 10 29  4  0
 11 17  4  0
 12 20  1  0
 12 26  1  0
 13 17  4  0
 13 34  4  0
 15 32  4  0
 15 33  4  0
 16 20  1  0
 18 29  4  0
 18 33  4  0
 19 28  4  0
 19 31  4  0
 20 22  1  0
 21 27  4  0
 23 28  4  0
 24 34  4  0
 25 26  1  0
M  END
$$$$

 Created by Python create_sdf_string function

 34 97  0  0  0  0  0  0  0  0999 V2000
    3.5631   -8.9614   16.5229 C   0  0  0  0  0  0  0  0  0  0  0  0
    9.3171   -5.6570   17.7816 I   0  0  0  0  0  0  0  0  0  0  0  0
    0.0275   -9.3566   15.3875 C   0  0  0  0  0  0  0  0  0  0  0  0
    9.4967   -4.4675   25.5960 N   0  0  0  0  0  0  0  0  0  0  0  0
    6.2189   -7.0670   17.2493 C   0  0  0  0  0  0  0  0  0  0  0  0
   -0.4802  -10.5946   14.8860 C   0  0  0  0  0  0  0  0  0  0  0  0
    9.5769   -6.3187   18.7431 C   0  0  0  0  0  0  0  0  0  0  0  0
    8.3725   -2.6131   25.5019 N   0  0  0  0  0  0  0  0  0  0  0  0
    2.7438   -7.2426   14.8270 F   0  0  0  0  0  0  0  0  0  0  0  0
   -0.8227  -11.4406   15.0594 C   0  0  0  0  0  0  0  0  0  0  0  0
   -1.2232  -11.9215   12.6533 C   0  0  0  0  0  0  0  0  0  0  0  0
   10.0041   -3.7354   25.4278 C   0  0  0  0  0  0  0  0  0  0  0  0
    1.3427   -9.6920   17.1762 N   0  0  0  0  0  0  0  0  0  0  0  0
    7.3346   -6.4158   17.1448 O   0  0  0  0  0  0  0  0  0  0  0  0
   -0.7481  -12.9551   13.7874 C   0  0  0  0  0  0  0  0  0  0  0  0
    2.5984   -8.6634   16.0095 C   0  0  0  0  0  0  0  0  0  0  0  0
   10.0895   -3.8060   17.2658 C   0  0  0  0  0  0  0  0  0  0  0  0
    8.0206   -9.5352   16.4735 C   0  0  0  0  0  0  0  0  0  0  0  0
    6.3452   -8.7637   17.0076 C   0  0  0  0  0  0  0  0  0  0  0  0
   10.4258   -6.1536   19.1006 C   0  0  0  0  0  0  0  0  0  0  0  0
   -1.0100  -10.1851   13.4222 C   0  0  0  0  0  0  0  0  0  0  0  0
    6.3194   -5.7086   15.6722 O   0  0  0  0  0  0  0  0  0  0  0  0
    7.7611   -7.4351   15.1265 C   0  0  0  0  0  0  0  0  0  0  0  0
   10.9439   -4.1373   18.4787 N   0  0  0  0  0  0  0  0  0  0  0  0
    2.4779   -8.1692   14.7632 C   0  0  0  0  0  0  0  0  0  0  0  0
    7.8016   -2.8825   26.4552 C   0  0  0  0  0  0  0  0  0  0  0  0
    9.0006   -4.2098   17.1635 C   0  0  0  0  0  0  0  0  0  0  0  0
    2.7141   -9.9379   17.7589 N   0  0  0  0  0  0  0  0  0  0  0  0
    1.0943   -9.4656   16.4571 N   0  0  0  0  0  0  0  0  0  0  0  0
   -0.9696  -10.9330   12.4730 N   0  0  0  0  0  0  0  0  0  0  0  0
    9.3925   -4.5819   26.7516 He  0  0  0  0  0  0  0  0  0  0  0  0
    8.3280   -8.7211   15.1242 He  0  0  0  0  0  0  0  0  0  0  0  0
    3.5676   -8.7786   16.6410 He  0  0  0  0  0  0  0  0  0  0  0  0
    4.1934   -7.7730   14.7078 He  0  0  0  0  0  0  0  0  0  0  0  0
  1  7  4  0
  1 10  4  0
  1 12  3  0
  1 13  2  0
  1 19  1  0
  1 27  1  0
  1 28  4  0
  2  5  3  0
  2  7  4  0
  2 14  2  0
  2 17  2  0
  2 18  3  0
  2 21  3  0
  2 27  4  0
  3  6  1  0
  3  8  1  0
  3 11  4  0
  3 12  1  0
  3 22  2  0
  3 29  1  0
  4  6  2  0
  4 12  4  0
  4 13  1  0
  4 17  4  0
  4 22  2  0
  4 23  2  0
  5  6  3  0
  5  9  4  0
  5 10  2  0
  5 18  1  0
  5 19  4  0
  5 23  4  0
  5 24  2  0
  5 27  2  0
  6  9  4  0
  6 10  4  0
  6 12  3  0
  6 13  1  0
  6 19  4  0
  6 20  3  0
  6 21  4  0
  6 24  2  0
  6 27  1  0
  6 28  1  0
  7  9  2  0
  7 12  3  0
  7 18  3  0
  7 20  4  0
  8  9  2  0
  8 12  4  0
  8 14  2  0
  8 18  4  0
  8 25  3  0
  9 11  2  0
  9 15  2  0
  9 19  3  0
  9 21  4  0
  9 26  2  0
  9 27  1  0
  9 29  2  0
 10 15  4  0
 10 18  2  0
 11 17  4  0
 11 26  4  0
 11 30  4  0
 12 13  3  0
 12 14  3  0
 12 18  3  0
 12 20  4  0
 13 18  3  0
 13 24  3  0
 13 29  4  0
 14 19  3  0
 15 19  4  0
 15 21  2  0
 16 18  2  0
 16 19  1  0
 16 25  4  0
 16 29  4  0
 17 23  4  0
 17 24  4  0
 17 26  1  0
 17 27  4  0
 18 19  2  0
 18 23  1  0
 18 24  2  0
 18 25  1  0
 18 26  1  0
 18 30  2  0
 20 24  4  0
 21 29  3  0
 21 30  4  0
 22 23  1  0
 22 27  4  0
 23 25  3  0
 23 28  4  0
 24 25  4  0
M  END
$$$$

 Created by Python create_sdf_string function

 34 37  0  0  0  0  0  0  0  0999 V2000
    3.9780   -8.7692   16.5738 C   0  0  0  0  0  0  0  0  0  0  0  0
    8.9514   -5.8055   17.6164 C   0  0  0  0  0  0  0  0  0  0  0  0
   -0.1001   -9.3184   15.7257 C   0  0  0  0  0  0  0  0  0  0  0  0
    9.9441   -4.3750   25.8643 N   0  0  0  0  0  0  0  0  0  0  0  0
    6.3911   -7.4948   16.8917 C   0  0  0  0  0  0  0  0  0  0  0  0
    8.8798   -4.3453   26.8607 N   0  0  0  0  0  0  0  0  0  0  0  0
   -0.5166  -10.3363   14.6949 C   0  0  0  0  0  0  0  0  0  0  0  0
    9.5906   -6.3545   18.6128 C   0  0  0  0  0  0  0  0  0  0  0  0
    8.5638   -2.5110   25.4556 N   0  0  0  0  0  0  0  0  0  0  0  0
    3.3939   -7.4692   14.5329 C   0  0  0  0  0  0  0  0  0  0  0  0
   -0.6785  -11.6771   14.9882 C   0  0  0  0  0  0  0  0  0  0  0  0
    7.7762   -8.3444   15.7708 C   0  0  0  0  0  0  0  0  0  0  0  0
   -1.1615  -12.2177   12.7580 C   0  0  0  0  0  0  0  0  0  0  0  0
    9.7257   -3.3046   25.0401 C   0  0  0  0  0  0  0  0  0  0  0  0
    1.4762  -10.0756   17.4318 N   0  0  0  0  0  0  0  0  0  0  0  0
    7.6125   -6.5830   17.0735 C   0  0  0  0  0  0  0  0  0  0  0  0
   -1.0430  -12.6007   14.0184 C   0  0  0  0  0  0  0  0  0  0  0  0
    2.3102   -8.7626   15.8467 C   0  0  0  0  0  0  0  0  0  0  0  0
   10.2205   -3.8402   17.5448 C   0  0  0  0  0  0  0  0  0  0  0  0
    7.6090   -8.3124   16.6978 C   0  0  0  0  0  0  0  0  0  0  0  0
    3.4987   -8.9865   16.7562 C   0  0  0  0  0  0  0  0  0  0  0  0
    5.8564   -8.7065   17.0674 C   0  0  0  0  0  0  0  0  0  0  0  0
   10.6387   -5.5495   19.1269 C   0  0  0  0  0  0  0  0  0  0  0  0
   -0.7714   -9.9769   13.4156 C   0  0  0  0  0  0  0  0  0  0  0  0
    6.7390   -5.9108   15.4771 O   0  0  0  0  0  0  0  0  0  0  0  0
    7.5571   -7.1955   15.3051 C   0  0  0  0  0  0  0  0  0  0  0  0
    4.2985   -7.7415   15.4987 C   0  0  0  0  0  0  0  0  0  0  0  0
   10.9404   -4.3361   18.5790 N   0  0  0  0  0  0  0  0  0  0  0  0
    2.3589   -7.9850   14.8383 C   0  0  0  0  0  0  0  0  0  0  0  0
    8.0048   -3.1890   26.5807 C   0  0  0  0  0  0  0  0  0  0  0  0
    9.1870   -4.5760   17.0018 C   0  0  0  0  0  0  0  0  0  0  0  0
    2.7137   -9.9683   17.8280 N   0  0  0  0  0  0  0  0  0  0  0  0
    1.1866   -9.4198   16.3354 N   0  0  0  0  0  0  0  0  0  0  0  0
   -1.1139  -10.9049   12.4484 C   0  0  0  0  0  0  0  0  0  0  0  0
  1 21  4  0
  1 27  4  0
  1 32  4  0
  2  8  4  0
  2 16  1  0
  2 31  4  0
  3  7  1  0
  3 33  1  0
  4  6  4  0
  4 14  4  0
  5 16  1  0
  5 20  1  0
  5 22  1  0
  6 30  4  0
  7 11  4  0
  7 24  4  0
  8 23  4  0
  9 14  4  0
  9 30  4  0
 10 27  4  0
 10 29  4  0
 11 17  4  0
 12 20  1  0
 12 26  1  0
 13 17  4  0
 13 34  4  0
 15 32  4  0
 15 33  4  0
 18 21  4  0
 18 29  4  0
 18 33  4  0
 19 28  4  0
 19 31  4  0
 21 32  4  0
 23 28  4  0
 24 34  4  0
 25 26  1  0
M  END
$$$$

 Created by Python create_sdf_string function

 34 91  0  0  0  0  0  0  0  0999 V2000
    3.8081   -9.2947   16.6098 C   0  0  0  0  0  0  0  0  0  0  0  0
    9.0059   -5.4230   17.4912 C   0  0  0  0  0  0  0  0  0  0  0  0
   -0.0991   -9.1052   15.7122 C   0  0  0  0  0  0  0  0  0  0  0  0
    9.8026   -5.0620   25.5751 N   0  0  0  0  0  0  0  0  0  0  0  0
    6.7865   -7.4642   16.0108 N   0  0  0  0  0  0  0  0  0  0  0  0
    9.1852   -4.2208   27.0733 N   0  0  0  0  0  0  0  0  0  0  0  0
   -0.2545   -9.9881   14.2984 C   0  0  0  0  0  0  0  0  0  0  0  0
   -0.5158  -11.5064   15.2046 C   0  0  0  0  0  0  0  0  0  0  0  0
    7.5325   -8.3890   16.4354 O   0  0  0  0  0  0  0  0  0  0  0  0
   -1.1537  -13.0837   12.8931 N   0  0  0  0  0  0  0  0  0  0  0  0
    9.4207   -3.5563   25.1044 C   0  0  0  0  0  0  0  0  0  0  0  0
    1.5774  -10.3065   17.4273 N   0  0  0  0  0  0  0  0  0  0  0  0
   -0.6954  -13.0919   14.0056 C   0  0  0  0  0  0  0  0  0  0  0  0
    2.2063   -8.9977   15.6895 C   0  0  0  0  0  0  0  0  0  0  0  0
    9.9620   -3.8232   17.5019 C   0  0  0  0  0  0  0  0  0  0  0  0
    7.7343   -7.9974   17.0820 C   0  0  0  0  0  0  0  0  0  0  0  0
    3.9474   -9.7156   17.0949 C   0  0  0  0  0  0  0  0  0  0  0  0
    5.5573   -8.4685   17.4633 C   0  0  0  0  0  0  0  0  0  0  0  0
   10.3231   -6.0102   19.1240 C   0  0  0  0  0  0  0  0  0  0  0  0
   -0.9755  -10.5766   13.2047 C   0  0  0  0  0  0  0  0  0  0  0  0
    6.5367   -6.0543   15.2187 O   0  0  0  0  0  0  0  0  0  0  0  0
    7.9983   -7.2094   15.9719 C   0  0  0  0  0  0  0  0  0  0  0  0
   11.0935   -3.9242   18.3728 N   0  0  0  0  0  0  0  0  0  0  0  0
    2.4066   -7.3063   14.7900 O   0  0  0  0  0  0  0  0  0  0  0  0
    8.2833   -3.5782   26.5211 C   0  0  0  0  0  0  0  0  0  0  0  0
    8.9571   -4.6173   17.0879 C   0  0  0  0  0  0  0  0  0  0  0  0
    2.8346  -10.1229   17.5686 N   0  0  0  0  0  0  0  0  0  0  0  0
    1.3461   -9.9877   15.7620 N   0  0  0  0  0  0  0  0  0  0  0  0
    9.5685   -6.2595   18.7534 He  0  0  0  0  0  0  0  0  0  0  0  0
    7.9466   -2.7573   25.2379 He  0  0  0  0  0  0  0  0  0  0  0  0
    3.4927   -7.3540   14.4837 He  0  0  0  0  0  0  0  0  0  0  0  0
    5.2730   -5.5981   16.8515 He  0  0  0  0  0  0  0  0  0  0  0  0
    4.1183   -8.4943   15.2272 He  0  0  0  0  0  0  0  0  0  0  0  0
   -0.8683  -10.9745   12.2885 He  0  0  0  0  0  0  0  0  0  0  0  0
  1  9  3  0
  1 17  2  0
  1 20  3  0
  1 26  1  0
  1 27  4  0
  2  5  1  0
  2  9  1  0
  2 26  4  0
  3  6  1  0
  3  7  1  0
  3 24  4  0
  3 28  1  0
  4  6  4  0
  4 10  4  0
  4 11  4  0
  4 16  1  0
  4 22  4  0
  4 23  2  0
  4 25  4  0
  5  6  4  0
  5  7  2  0
  5  8  2  0
  5  9  4  0
  5 10  4  0
  5 11  4  0
  5 14  1  0
  5 15  2  0
  5 16  1  0
  5 18  1  0
  5 24  2  0
  5 28  2  0
  6  7  1  0
  6  9  2  0
  6 16  1  0
  6 20  3  0
  6 25  4  0
  7  8  4  0
  7 11  3  0
  7 17  3  0
  8 16  2  0
  8 17  4  0
  8 24  4  0
  8 26  3  0
  8 28  3  0
  9 10  3  0
  9 11  4  0
  9 12  1  0
  9 16  1  0
  9 19  2  0
  9 23  4  0
  9 24  3  0
  9 25  2  0
  9 26  1  0
  9 27  2  0
 10 11  2  0
 10 13  4  0
 11 12  4  0
 11 14  4  0
 11 16  1  0
 11 17  3  0
 11 23  1  0
 11 27  3  0
 12 19  1  0
 12 27  4  0
 12 28  4  0
 13 17  3  0
 13 22  3  0
 14 16  2  0
 14 17  4  0
 14 24  4  0
 14 28  4  0
 15 16  1  0
 15 20  4  0
 15 21  1  0
 15 23  4  0
 15 26  4  0
 15 27  3  0
 16 22  4  0
 16 24  3  0
 16 26  2  0
 16 27  4  0
 17 20  3  0
 17 23  2  0
 17 24  2  0
 17 26  4  0
 17 28  4  0
 18 26  3  0
 19 23  4  0
 19 24  3  0
 21 22  1  0
 24 28  2  0
M  END
$$$$

 Created by Python create_sdf_string function

 34 34  0  0  0  0  0  0  0  0999 V2000
    3.6367   -9.4143   17.0585 C   0  0  0  0  0  0  0  0  0  0  0  0
    9.1014   -5.8517   17.3524 C   0  0  0  0  0  0  0  0  0  0  0  0
   -0.0657   -9.3524   15.4854 C   0  0  0  0  0  0  0  0  0  0  0  0
   10.0422   -4.4908   25.8454 N   0  0  0  0  0  0  0  0  0  0  0  0
    6.2270   -7.8364   16.5653 N   0  0  0  0  0  0  0  0  0  0  0  0
    9.1243   -4.4495   27.0033 N   0  0  0  0  0  0  0  0  0  0  0  0
   -0.4164  -10.4760   14.5670 C   0  0  0  0  0  0  0  0  0  0  0  0
    9.6321   -6.3666   18.5053 C   0  0  0  0  0  0  0  0  0  0  0  0
    8.3445   -2.8325   25.5029 N   0  0  0  0  0  0  0  0  0  0  0  0
    3.7664   -7.4309   14.9408 C   0  0  0  0  0  0  0  0  0  0  0  0
   -0.5809  -11.7724   14.9986 C   0  0  0  0  0  0  0  0  0  0  0  0
    7.7913   -8.0449   16.7259 C   0  0  0  0  0  0  0  0  0  0  0  0
   -1.0862  -12.5860   12.8772 C   0  0  0  0  0  0  0  0  0  0  0  0
    9.5827   -3.4989   24.9086 C   0  0  0  0  0  0  0  0  0  0  0  0
    1.5011  -10.2429   17.2054 N   0  0  0  0  0  0  0  0  0  0  0  0
    5.8303   -7.1500   16.2463 C   0  0  0  0  0  0  0  0  0  0  0  0
   -0.9653  -12.7867   14.2011 C   0  0  0  0  0  0  0  0  0  0  0  0
    2.2414   -8.8336   15.6355 C   0  0  0  0  0  0  0  0  0  0  0  0
   10.1063   -3.8550   17.4613 C   0  0  0  0  0  0  0  0  0  0  0  0
    7.6527   -8.0080   17.1229 C   0  0  0  0  0  0  0  0  0  0  0  0
    3.6244   -8.9026   16.3852 C   0  0  0  0  0  0  0  0  0  0  0  0
    5.5721   -8.7251   17.3106 C   0  0  0  0  0  0  0  0  0  0  0  0
   10.4760   -5.4878   19.1111 C   0  0  0  0  0  0  0  0  0  0  0  0
   -0.7097  -10.2959   13.1714 C   0  0  0  0  0  0  0  0  0  0  0  0
    6.7407   -6.1214   15.2513 O   0  0  0  0  0  0  0  0  0  0  0  0
    7.9597   -6.7624   16.0605 C   0  0  0  0  0  0  0  0  0  0  0  0
    4.1570   -7.8023   15.3686 C   0  0  0  0  0  0  0  0  0  0  0  0
   10.7530   -4.2556   18.5667 N   0  0  0  0  0  0  0  0  0  0  0  0
    2.2108   -7.8301   14.5990 O   0  0  0  0  0  0  0  0  0  0  0  0
    8.0733   -3.5130   26.7449 C   0  0  0  0  0  0  0  0  0  0  0  0
    9.2138   -4.6076   16.8111 C   0  0  0  0  0  0  0  0  0  0  0  0
    2.6798  -10.2606   17.7160 N   0  0  0  0  0  0  0  0  0  0  0  0
    1.2317   -9.5138   16.1463 N   0  0  0  0  0  0  0  0  0  0  0  0
   -1.0213  -11.3022   12.4033 C   0  0  0  0  0  0  0  0  0  0  0  0
  1 21  4  0
  1 32  4  0
  2  8  4  0
  2 26  1  0
  2 31  4  0
  3  7  1  0
  3 33  1  0
  4  6  4  0
  4 14  4  0
  5 16  1  0
  5 20  1  0
  5 22  1  0
  6 30  4  0
  7 11  4  0
  7 24  4  0
  8 23  4  0
  9 14  4  0
  9 30  4  0
 10 27  4  0
 11 17  4  0
 12 20  1  0
 13 17  4  0
 13 34  4  0
 15 32  4  0
 15 33  4  0
 18 21  4  0
 18 29  4  0
 18 33  4  0
 19 28  4  0
 19 31  4  0
 20 26  1  0
 23 28  4  0
 24 34  4  0
 25 26  1  0
M  END
$$$$

 Created by Python create_sdf_string function

 34 46  0  0  0  0  0  0  0  0999 V2000
    3.8209   -8.9001   16.7116 C   0  0  0  0  0  0  0  0  0  0  0  0
   -0.4415   -8.7061   15.7853 C   0  0  0  0  0  0  0  0  0  0  0  0
    9.9258   -4.5223   25.3692 N   0  0  0  0  0  0  0  0  0  0  0  0
    9.0499   -4.8984   27.0434 N   0  0  0  0  0  0  0  0  0  0  0  0
    9.9632   -6.1155   18.4765 C   0  0  0  0  0  0  0  0  0  0  0  0
   -0.6487  -11.9434   15.2297 C   0  0  0  0  0  0  0  0  0  0  0  0
   -1.3476  -12.5787   12.5080 C   0  0  0  0  0  0  0  0  0  0  0  0
    9.9858   -4.4151   24.8093 C   0  0  0  0  0  0  0  0  0  0  0  0
    1.6573  -10.2522   17.4131 B   0  0  0  0  0  0  0  0  0  0  0  0
   -0.4805  -12.7996   14.0272 C   0  0  0  0  0  0  0  0  0  0  0  0
    2.4143   -8.7900   15.3088 C   0  0  0  0  0  0  0  0  0  0  0  0
   10.4729   -4.0314   17.2838 C   0  0  0  0  0  0  0  0  0  0  0  0
    7.0555   -7.3533   17.4458 C   0  0  0  0  0  0  0  0  0  0  0  0
    5.5328   -8.9045   17.4267 P   0  0  0  0  0  0  0  0  0  0  0  0
   10.3955   -5.3544   19.1236 N   0  0  0  0  0  0  0  0  0  0  0  0
   -1.1787  -10.3750   13.3794 C   0  0  0  0  0  0  0  0  0  0  0  0
    6.0295   -5.8166   14.9542 F   0  0  0  0  0  0  0  0  0  0  0  0
    7.6933   -7.2341   16.2802 C   0  0  0  0  0  0  0  0  0  0  0  0
   10.2871   -3.6480   19.1579 N   0  0  0  0  0  0  0  0  0  0  0  0
    1.8226   -8.1478   14.4786 O   0  0  0  0  0  0  0  0  0  0  0  0
    7.8433   -3.2230   26.4416 C   0  0  0  0  0  0  0  0  0  0  0  0
    8.1745   -4.9084   16.9149 C   0  0  0  0  0  0  0  0  0  0  0  0
    2.5387   -9.7847   17.6654 N   0  0  0  0  0  0  0  0  0  0  0  0
    0.9917   -9.2625   16.1036 N   0  0  0  0  0  0  0  0  0  0  0  0
   -0.5048  -11.0177   12.6668 C   0  0  0  0  0  0  0  0  0  0  0  0
    9.0058   -5.6090   17.0464 He  0  0  0  0  0  0  0  0  0  0  0  0
    6.0480   -7.2860   16.4566 He  0  0  0  0  0  0  0  0  0  0  0  0
   -0.5051  -10.8714   14.7894 He  0  0  0  0  0  0  0  0  0  0  0  0
    8.2088   -2.6740   25.4742 He  0  0  0  0  0  0  0  0  0  0  0  0
    3.8708   -7.2973   13.5370 He  0  0  0  0  0  0  0  0  0  0  0  0
    7.1821   -7.0740   16.8898 He  0  0  0  0  0  0  0  0  0  0  0  0
    6.4040   -7.3914   15.2335 He  0  0  0  0  0  0  0  0  0  0  0  0
    3.9944   -8.4546   17.3265 He  0  0  0  0  0  0  0  0  0  0  0  0
    4.8740   -7.8192   14.4753 He  0  0  0  0  0  0  0  0  0  0  0  0
  1 13  2  0
  1 23  4  0
  2 21  3  0
  2 24  1  0
  3  4  4  0
  3  8  4  0
  4 12  1  0
  4 13  3  0
  4 15  4  0
  4 17  4  0
  4 21  4  0
  5 15  4  0
  6 13  1  0
  7 10  4  0
  7 13  1  0
  7 25  4  0
  8 16  1  0
  8 17  4  0
  9 11  4  0
  9 23  4  0
  9 24  4  0
 10 17  2  0
 10 19  2  0
 10 25  3  0
 11 13  2  0
 11 18  4  0
 11 20  4  0
 11 24  4  0
 12 13  1  0
 12 17  3  0
 12 19  2  0
 12 22  4  0
 13 15  2  0
 13 16  3  0
 13 19  2  0
 13 23  1  0
 15 19  4  0
 16 25  2  0
 17 18  1  0
 17 19  4  0
 17 20  4  0
 17 22  2  0
 18 19  3  0
 19 25  3  0
 20 24  4  0
 20 25  4  0
M  END
$$$$

 Created by Python create_sdf_string function

 34 30  0  0  0  0  0  0  0  0999 V2000
    3.5543   -9.1764   16.9550 C   0  0  0  0  0  0  0  0  0  0  0  0
    9.1135   -5.8953   17.3056 C   0  0  0  0  0  0  0  0  0  0  0  0
   -0.2850   -9.3579   15.6686 C   0  0  0  0  0  0  0  0  0  0  0  0
   10.0409   -4.6576   25.8601 N   0  0  0  0  0  0  0  0  0  0  0  0
    5.7616   -7.9072   16.4807 C   0  0  0  0  0  0  0  0  0  0  0  0
    8.9639   -4.5776   26.8693 N   0  0  0  0  0  0  0  0  0  0  0  0
   -0.5399  -10.4392   14.7269 C   0  0  0  0  0  0  0  0  0  0  0  0
    9.6174   -6.2265   18.5469 C   0  0  0  0  0  0  0  0  0  0  0  0
    8.6794   -2.8853   25.4086 N   0  0  0  0  0  0  0  0  0  0  0  0
    4.0345   -7.3460   14.4916 C   0  0  0  0  0  0  0  0  0  0  0  0
   -0.6288  -11.8395   15.0634 C   0  0  0  0  0  0  0  0  0  0  0  0
    6.9967   -7.2428   16.8326 N   0  0  0  0  0  0  0  0  0  0  0  0
   -0.9577  -12.4789   12.8251 C   0  0  0  0  0  0  0  0  0  0  0  0
    9.8568   -3.6856   24.9434 C   0  0  0  0  0  0  0  0  0  0  0  0
    1.4665   -9.9547   17.3158 C   0  0  0  0  0  0  0  0  0  0  0  0
    6.3309   -7.3512   15.5529 C   0  0  0  0  0  0  0  0  0  0  0  0
   -0.8844  -12.7925   14.1204 C   0  0  0  0  0  0  0  0  0  0  0  0
    2.1065   -8.7228   15.4934 C   0  0  0  0  0  0  0  0  0  0  0  0
   10.0438   -3.8002   17.4446 C   0  0  0  0  0  0  0  0  0  0  0  0
    7.0644   -7.7567   17.3799 C   0  0  0  0  0  0  0  0  0  0  0  0
    3.6137   -8.5848   16.1742 C   0  0  0  0  0  0  0  0  0  0  0  0
    5.5111   -8.8390   17.8086 O   0  0  0  0  0  0  0  0  0  0  0  0
   10.3375   -5.3201   19.2140 N   0  0  0  0  0  0  0  0  0  0  0  0
   -0.7700  -10.1766   13.3680 C   0  0  0  0  0  0  0  0  0  0  0  0
    6.4213   -6.1324   15.0138 O   0  0  0  0  0  0  0  0  0  0  0  0
    8.0981   -6.9267   16.3345 C   0  0  0  0  0  0  0  0  0  0  0  0
    4.9359   -7.4820   15.0428 C   0  0  0  0  0  0  0  0  0  0  0  0
   10.5443   -4.0985   18.6475 N   0  0  0  0  0  0  0  0  0  0  0  0
    1.9745   -8.1144   14.4118 O   0  0  0  0  0  0  0  0  0  0  0  0
    8.0676   -3.4982   26.5548 C   0  0  0  0  0  0  0  0  0  0  0  0
    9.3178   -4.7181   16.7309 C   0  0  0  0  0  0  0  0  0  0  0  0
    2.7026   -9.9064   17.6759 N   0  0  0  0  0  0  0  0  0  0  0  0
    1.0696   -9.3799   16.1970 N   0  0  0  0  0  0  0  0  0  0  0  0
   -0.9747  -11.1569   12.4596 C   0  0  0  0  0  0  0  0  0  0  0  0
  1 21  4  0
  1 32  4  0
  2  8  4  0
  2 26  1  0
  2 31  4  0
  3  7  1  0
  3 33  1  0
  4  6  4  0
  4 14  4  0
  6 30  4  0
  7 11  4  0
  7 24  4  0
  8 23  4  0
  9 14  4  0
  9 30  4  0
 10 27  4  0
 11 17  4  0
 12 20  1  0
 13 17  4  0
 13 34  4  0
 15 32  4  0
 15 33  4  0
 16 26  1  0
 18 21  4  0
 18 29  4  0
 18 33  4  0
 19 28  4  0
 19 31  4  0
 23 28  4  0
 24 34  4  0
M  END
$$$$

 Created by Python create_sdf_string function

 34 62  0  0  0  0  0  0  0  0999 V2000
    3.3652   -9.1861   16.7683 C   0  0  0  0  0  0  0  0  0  0  0  0
    9.1088   -5.8650   16.9482 C   0  0  0  0  0  0  0  0  0  0  0  0
   -0.1198   -9.2034   15.6576 C   0  0  0  0  0  0  0  0  0  0  0  0
    9.7414   -3.6248   25.2442 N   0  0  0  0  0  0  0  0  0  0  0  0
    8.9356   -4.1302   27.2062 N   0  0  0  0  0  0  0  0  0  0  0  0
   -0.0154  -10.3256   14.2666 C   0  0  0  0  0  0  0  0  0  0  0  0
    9.6305   -6.0694   18.8617 C   0  0  0  0  0  0  0  0  0  0  0  0
    8.8071   -2.2948   26.0756 N   0  0  0  0  0  0  0  0  0  0  0  0
    3.4494   -6.1487   13.4950 Cl  0  0  0  0  0  0  0  0  0  0  0  0
   -0.3899  -11.3027   15.2234 C   0  0  0  0  0  0  0  0  0  0  0  0
   -1.1207  -12.8669   13.0118 C   0  0  0  0  0  0  0  0  0  0  0  0
    9.3778   -3.9975   25.3353 C   0  0  0  0  0  0  0  0  0  0  0  0
   -0.6689  -12.5369   14.7399 C   0  0  0  0  0  0  0  0  0  0  0  0
    1.6183   -8.4391   15.2628 C   0  0  0  0  0  0  0  0  0  0  0  0
   10.1297   -3.6844   18.1214 F   0  0  0  0  0  0  0  0  0  0  0  0
    6.4037   -7.2489   17.7742 C   0  0  0  0  0  0  0  0  0  0  0  0
    5.1666   -8.4454   17.7412 O   0  0  0  0  0  0  0  0  0  0  0  0
   10.3190   -5.0401   19.4334 N   0  0  0  0  0  0  0  0  0  0  0  0
    6.3270   -5.7781   15.2804 O   0  0  0  0  0  0  0  0  0  0  0  0
    8.2743   -7.1232   16.3311 C   0  0  0  0  0  0  0  0  0  0  0  0
    9.9084   -3.8296   18.4539 N   0  0  0  0  0  0  0  0  0  0  0  0
    1.9962   -7.9209   14.4676 Cl  0  0  0  0  0  0  0  0  0  0  0  0
    9.3899   -4.8508   17.1772 C   0  0  0  0  0  0  0  0  0  0  0  0
    2.8431  -10.1829   17.6886 N   0  0  0  0  0  0  0  0  0  0  0  0
    0.4561   -9.4032   16.2182 N   0  0  0  0  0  0  0  0  0  0  0  0
   -1.4567  -11.2135   12.8424 C   0  0  0  0  0  0  0  0  0  0  0  0
    5.7878   -9.0250   16.6930 He  0  0  0  0  0  0  0  0  0  0  0  0
    7.3775   -7.9915   15.0984 He  0  0  0  0  0  0  0  0  0  0  0  0
    1.4466  -10.5347   17.5315 He  0  0  0  0  0  0  0  0  0  0  0  0
    5.9568   -7.7486   15.9763 He  0  0  0  0  0  0  0  0  0  0  0  0
    3.5638   -9.3120   16.3434 He  0  0  0  0  0  0  0  0  0  0  0  0
   -1.5425  -10.3501   12.9979 He  0  0  0  0  0  0  0  0  0  0  0  0
    5.3768   -8.4300   14.8740 He  0  0  0  0  0  0  0  0  0  0  0  0
    8.3293   -4.1398   26.1676 He  0  0  0  0  0  0  0  0  0  0  0  0
  1  9  1  0
  1 18  4  0
  1 19  1  0
  1 24  3  0
  2  9  4  0
  2 15  2  0
  2 23  4  0
  3  7  4  0
  3 12  4  0
  3 19  1  0
  3 25  1  0
  4  5  4  0
  4 12  4  0
  4 16  2  0
  4 22  1  0
  4 24  3  0
  5 15  4  0
  5 16  2  0
  5 17  1  0
  5 26  2  0
  6  9  2  0
  6 10  4  0
  6 13  1  0
  7 14  3  0
  7 16  3  0
  7 18  4  0
  7 25  2  0
  8 10  3  0
  8 12  4  0
  8 26  3  0
  9 11  3  0
  9 15  1  0
  9 18  4  0
  9 22  3  0
  9 23  4  0
  9 25  4  0
  9 26  3  0
 10 13  2  0
 10 22  4  0
 10 24  2  0
 11 12  1  0
 11 13  4  0
 11 17  4  0
 11 23  3  0
 12 13  4  0
 12 24  1  0
 13 15  1  0
 13 20  4  0
 13 24  2  0
 14 20  4  0
 14 22  4  0
 15 22  2  0
 15 23  1  0
 15 26  3  0
 16 21  4  0
 16 25  4  0
 16 26  2  0
 17 18  2  0
 18 21  4  0
 21 24  1  0
 22 23  1  0
 24 25  1  0
M  END
$$$$

 Created by Python create_sdf_string function

 34 31  0  0  0  0  0  0  0  0999 V2000
    3.3550   -9.2440   16.9064 C   0  0  0  0  0  0  0  0  0  0  0  0
    9.2518   -5.9048   17.4131 C   0  0  0  0  0  0  0  0  0  0  0  0
   -0.1430   -9.1423   15.4970 C   0  0  0  0  0  0  0  0  0  0  0  0
   10.0221   -4.1617   25.7169 N   0  0  0  0  0  0  0  0  0  0  0  0
    5.3584   -8.1746   16.2783 C   0  0  0  0  0  0  0  0  0  0  0  0
    9.0809   -4.4390   26.8246 N   0  0  0  0  0  0  0  0  0  0  0  0
   -0.4817  -10.2818   14.6499 C   0  0  0  0  0  0  0  0  0  0  0  0
    9.5594   -6.2121   18.6950 C   0  0  0  0  0  0  0  0  0  0  0  0
    8.4774   -2.6289   25.7366 N   0  0  0  0  0  0  0  0  0  0  0  0
    3.4557   -7.0036   14.3426 C   0  0  0  0  0  0  0  0  0  0  0  0
   -0.4691  -11.5554   15.1232 C   0  0  0  0  0  0  0  0  0  0  0  0
    7.4029   -7.8825   15.5645 C   0  0  0  0  0  0  0  0  0  0  0  0
   -1.3381  -12.5118   13.1542 C   0  0  0  0  0  0  0  0  0  0  0  0
    9.6438   -3.1359   25.1290 C   0  0  0  0  0  0  0  0  0  0  0  0
    1.3745  -10.0873   17.3059 C   0  0  0  0  0  0  0  0  0  0  0  0
    6.3878   -7.5974   16.1015 N   0  0  0  0  0  0  0  0  0  0  0  0
   -0.9257  -12.6423   14.4517 C   0  0  0  0  0  0  0  0  0  0  0  0
    2.1231   -8.6600   15.5039 C   0  0  0  0  0  0  0  0  0  0  0  0
   10.1281   -3.8331   17.5923 C   0  0  0  0  0  0  0  0  0  0  0  0
    6.2991   -7.6188   17.0877 C   0  0  0  0  0  0  0  0  0  0  0  0
    3.3349   -8.8300   16.3175 C   0  0  0  0  0  0  0  0  0  0  0  0
    5.3540   -8.7029   17.9552 O   0  0  0  0  0  0  0  0  0  0  0  0
   10.1288   -5.2313   19.4021 N   0  0  0  0  0  0  0  0  0  0  0  0
   -0.9602  -10.2195   13.2943 C   0  0  0  0  0  0  0  0  0  0  0  0
    6.4409   -5.9164   15.2107 O   0  0  0  0  0  0  0  0  0  0  0  0
    8.5332   -7.0571   16.3793 C   0  0  0  0  0  0  0  0  0  0  0  0
    4.8089   -7.4860   15.2798 C   0  0  0  0  0  0  0  0  0  0  0  0
   10.3384   -4.0485   18.8323 C   0  0  0  0  0  0  0  0  0  0  0  0
    2.1759   -7.7403   14.5254 C   0  0  0  0  0  0  0  0  0  0  0  0
    8.1028   -3.5854   26.7004 C   0  0  0  0  0  0  0  0  0  0  0  0
    9.5308   -4.7430   16.8200 C   0  0  0  0  0  0  0  0  0  0  0  0
    2.5544  -10.1025   17.7953 N   0  0  0  0  0  0  0  0  0  0  0  0
    1.1037   -9.3842   16.1776 N   0  0  0  0  0  0  0  0  0  0  0  0
   -1.3782  -11.3328   12.6162 C   0  0  0  0  0  0  0  0  0  0  0  0
  1 21  4  0
  1 32  4  0
  2  8  4  0
  2 26  1  0
  2 31  4  0
  3  7  1  0
  3 33  1  0
  4  6  4  0
  4 14  4  0
  5 27  4  0
  6 30  4  0
  7 11  4  0
  7 24  4  0
  8 23  4  0
  9 14  4  0
  9 30  4  0
 10 27  4  0
 10 29  4  0
 11 17  4  0
 12 26  1  0
 13 17  4  0
 13 34  4  0
 15 32  4  0
 15 33  4  0
 18 21  4  0
 18 29  4  0
 18 33  4  0
 19 28  4  0
 19 31  4  0
 23 28  4  0
 24 34  4  0
M  END
$$$$

 Created by Python create_sdf_string function

 34 73  0  0  0  0  0  0  0  0999 V2000
    3.2461   -9.4167   17.1871 N   0  0  0  0  0  0  0  0  0  0  0  0
    9.1360   -6.0592   17.4279 C   0  0  0  0  0  0  0  0  0  0  0  0
   -0.5326   -9.5902   15.4825 C   0  0  0  0  0  0  0  0  0  0  0  0
   10.1775   -4.0505   26.0270 N   0  0  0  0  0  0  0  0  0  0  0  0
    6.4573   -8.8675   15.3952 C   0  0  0  0  0  0  0  0  0  0  0  0
    8.4436   -4.4264   26.8966 N   0  0  0  0  0  0  0  0  0  0  0  0
    9.6409   -6.0588   18.8233 C   0  0  0  0  0  0  0  0  0  0  0  0
    8.4413   -2.7763   25.6015 N   0  0  0  0  0  0  0  0  0  0  0  0
    3.0430   -5.8053   14.0444 N   0  0  0  0  0  0  0  0  0  0  0  0
   -1.0226  -11.6328   14.9938 C   0  0  0  0  0  0  0  0  0  0  0  0
    8.1300   -6.7084   15.0484 C   0  0  0  0  0  0  0  0  0  0  0  0
   -1.3756  -12.3014   13.1148 C   0  0  0  0  0  0  0  0  0  0  0  0
    6.7653   -6.1680   14.6940 N   0  0  0  0  0  0  0  0  0  0  0  0
   -0.8658  -12.2903   14.8691 C   0  0  0  0  0  0  0  0  0  0  0  0
    9.8781   -4.3596   18.0718 C   0  0  0  0  0  0  0  0  0  0  0  0
    3.7981   -8.6140   17.0198 F   0  0  0  0  0  0  0  0  0  0  0  0
    5.6930   -9.0385   17.8155 O   0  0  0  0  0  0  0  0  0  0  0  0
   -1.2153  -10.4745   13.7476 C   0  0  0  0  0  0  0  0  0  0  0  0
    6.7312   -6.2431   15.0638 O   0  0  0  0  0  0  0  0  0  0  0  0
    3.9316   -8.3278   14.8373 Se  0  0  0  0  0  0  0  0  0  0  0  0
   10.3560   -4.1636   18.4454 C   0  0  0  0  0  0  0  0  0  0  0  0
    1.6473   -7.1283   14.1754 C   0  0  0  0  0  0  0  0  0  0  0  0
    9.2389   -5.0669   17.0122 N   0  0  0  0  0  0  0  0  0  0  0  0
    2.4075   -9.3360   18.3156 N   0  0  0  0  0  0  0  0  0  0  0  0
    1.1028   -9.6419   16.2996 N   0  0  0  0  0  0  0  0  0  0  0  0
   -1.2916  -11.5306   12.5614 C   0  0  0  0  0  0  0  0  0  0  0  0
   -0.1473  -10.3397   14.6946 He  0  0  0  0  0  0  0  0  0  0  0  0
    9.6894   -2.3101   25.3210 He  0  0  0  0  0  0  0  0  0  0  0  0
    1.0138  -10.2151   17.4580 He  0  0  0  0  0  0  0  0  0  0  0  0
    2.0682   -8.9696   15.4407 He  0  0  0  0  0  0  0  0  0  0  0  0
    7.1436   -7.9262   17.4970 He  0  0  0  0  0  0  0  0  0  0  0  0
    9.8552   -5.4955   18.9530 He  0  0  0  0  0  0  0  0  0  0  0  0
    8.5923   -7.1946   16.6206 He  0  0  0  0  0  0  0  0  0  0  0  0
    8.1515   -3.8022   27.0906 He  0  0  0  0  0  0  0  0  0  0  0  0
  1  2  1  0
  1 11  2  0
  1 15  4  0
  1 18  4  0
  1 20  3  0
  1 24  4  0
  2  6  4  0
  2  7  4  0
  2  9  4  0
  2 16  2  0
  2 18  2  0
  2 22  1  0
  2 23  3  0
  3  9  1  0
  3 17  3  0
  3 21  4  0
  3 24  3  0
  4  6  4  0
  4 12  3  0
  4 19  3  0
  4 23  1  0
  5  6  1  0
  5 12  1  0
  5 14  4  0
  5 15  2  0
  5 16  3  0
  5 17  3  0
  5 18  2  0
  5 21  2  0
  5 22  3  0
  6 11  2  0
  6 20  4  0
  6 22  1  0
  6 26  4  0
  7  8  3  0
  7  9  4  0
  7 14  1  0
  7 23  2  0
  8  9  3  0
  8 10  1  0
  8 13  1  0
  8 17  1  0
  8 20  4  0
  8 26  3  0
  9 11  4  0
  9 14  3  0
  9 20  3  0
  9 21  1  0
  9 22  1  0
  9 26  1  0
 10 11  3  0
 10 14  4  0
 10 20  1  0
 11 26  4  0
 12 14  4  0
 12 26  4  0
 13 18  4  0
 13 19  1  0
 13 20  4  0
 13 22  4  0
 14 16  4  0
 15 21  4  0
 15 23  4  0
 15 26  4  0
 16 21  2  0
 16 22  3  0
 17 18  2  0
 18 23  1  0
 18 26  4  0
 20 23  1  0
 20 25  2  0
 21 22  1  0
 21 23  2  0
M  END
$$$$

 Created by Python create_sdf_string function

 34 38  0  0  0  0  0  0  0  0999 V2000
    3.4923   -9.4185   17.3445 N   0  0  0  0  0  0  0  0  0  0  0  0
    9.1275   -6.1791   17.4236 C   0  0  0  0  0  0  0  0  0  0  0  0
   -0.1388   -9.2692   15.6117 C   0  0  0  0  0  0  0  0  0  0  0  0
   10.0291   -4.0224   25.9868 N   0  0  0  0  0  0  0  0  0  0  0  0
    6.0191   -8.1268   16.1341 C   0  0  0  0  0  0  0  0  0  0  0  0
    8.9543   -4.4604   26.8434 N   0  0  0  0  0  0  0  0  0  0  0  0
   -0.5645  -10.4083   14.8302 C   0  0  0  0  0  0  0  0  0  0  0  0
    9.6293   -6.4143   18.6619 C   0  0  0  0  0  0  0  0  0  0  0  0
    8.3413   -2.5521   25.8489 N   0  0  0  0  0  0  0  0  0  0  0  0
    3.0414   -6.7023   14.4646 C   0  0  0  0  0  0  0  0  0  0  0  0
   -0.7930  -11.6985   15.3366 C   0  0  0  0  0  0  0  0  0  0  0  0
    7.9893   -7.0695   15.4702 C   0  0  0  0  0  0  0  0  0  0  0  0
   -1.4270  -12.4964   13.2289 C   0  0  0  0  0  0  0  0  0  0  0  0
    9.6045   -2.8573   25.3540 N   0  0  0  0  0  0  0  0  0  0  0  0
    1.3224  -10.0340   17.4295 C   0  0  0  0  0  0  0  0  0  0  0  0
    6.3714   -6.9736   15.3111 C   0  0  0  0  0  0  0  0  0  0  0  0
   -1.2487  -12.6893   14.5489 C   0  0  0  0  0  0  0  0  0  0  0  0
    2.0458   -8.6195   15.7072 C   0  0  0  0  0  0  0  0  0  0  0  0
   10.0155   -3.9771   17.5070 C   0  0  0  0  0  0  0  0  0  0  0  0
    7.3349   -8.0567   17.3281 C   0  0  0  0  0  0  0  0  0  0  0  0
    3.3515   -8.7430   16.2633 C   0  0  0  0  0  0  0  0  0  0  0  0
    6.1106   -8.6337   17.5304 C   0  0  0  0  0  0  0  0  0  0  0  0
   10.2697   -5.3773   19.3150 C   0  0  0  0  0  0  0  0  0  0  0  0
   -0.8613  -10.2708   13.4071 C   0  0  0  0  0  0  0  0  0  0  0  0
    6.3282   -6.1692   15.0358 O   0  0  0  0  0  0  0  0  0  0  0  0
    8.3485   -7.2284   16.7029 C   0  0  0  0  0  0  0  0  0  0  0  0
    4.4944   -7.9410   15.4242 N   0  0  0  0  0  0  0  0  0  0  0  0
   10.4355   -4.1877   18.7443 C   0  0  0  0  0  0  0  0  0  0  0  0
    1.9593   -7.5837   14.6290 C   0  0  0  0  0  0  0  0  0  0  0  0
    7.9287   -3.5939   26.7146 C   0  0  0  0  0  0  0  0  0  0  0  0
    9.3391   -4.9871   16.7864 N   0  0  0  0  0  0  0  0  0  0  0  0
    2.4725  -10.0243   17.9390 N   0  0  0  0  0  0  0  0  0  0  0  0
    1.1071   -9.3240   16.2611 N   0  0  0  0  0  0  0  0  0  0  0  0
   -1.3060  -11.3020   12.7003 C   0  0  0  0  0  0  0  0  0  0  0  0
  1 21  4  0
  1 32  4  0
  2  8  4  0
  2 26  1  0
  2 31  4  0
  3  7  1  0
  3 33  1  0
  4  6  4  0
  4 14  4  0
  5 16  4  0
  5 22  1  0
  5 27  1  0
  6 30  4  0
  7 11  4  0
  7 24  4  0
  8 23  4  0
  9 14  4  0
  9 30  4  0
 10 27  1  0
 10 29  1  0
 11 17  4  0
 12 16  1  0
 12 26  1  0
 13 17  4  0
 13 34  4  0
 15 32  4  0
 15 33  4  0
 16 25  1  0
 18 21  4  0
 18 29  1  0
 18 33  4  0
 19 28  4  0
 19 31  4  0
 20 22  1  0
 20 26  1  0
 21 27  1  0
 23 28  4  0
 24 34  4  0
M  END
$$$$

 Created by Python create_sdf_string function

 34 66  0  0  0  0  0  0  0  0999 V2000
    3.5717   -9.5068   17.6232 N   0  0  0  0  0  0  0  0  0  0  0  0
    9.6034   -5.7990   17.6645 C   0  0  0  0  0  0  0  0  0  0  0  0
   -0.1741   -9.3079   15.5571 F   0  0  0  0  0  0  0  0  0  0  0  0
    9.9058   -3.9794   26.4615 S   0  0  0  0  0  0  0  0  0  0  0  0
    9.0827   -4.3945   26.9743 N   0  0  0  0  0  0  0  0  0  0  0  0
   -0.4524  -10.8369   14.9737 C   0  0  0  0  0  0  0  0  0  0  0  0
    8.9083   -6.1939   18.2363 C   0  0  0  0  0  0  0  0  0  0  0  0
    8.5062   -2.3724   26.4508 N   0  0  0  0  0  0  0  0  0  0  0  0
   -0.8988  -11.5775   15.4456 C   0  0  0  0  0  0  0  0  0  0  0  0
   -1.0717  -12.3641   13.2181 C   0  0  0  0  0  0  0  0  0  0  0  0
    1.6481  -10.0633   17.2201 C   0  0  0  0  0  0  0  0  0  0  0  0
    9.0481   -6.0812   14.7727 F   0  0  0  0  0  0  0  0  0  0  0  0
   -1.3127  -12.4490   14.7757 C   0  0  0  0  0  0  0  0  0  0  0  0
    2.2571   -8.0364   14.9569 C   0  0  0  0  0  0  0  0  0  0  0  0
   10.3498   -3.9287   17.9907 C   0  0  0  0  0  0  0  0  0  0  0  0
    3.4750   -9.8257   16.1654 F   0  0  0  0  0  0  0  0  0  0  0  0
    6.3038   -8.1952   17.2824 C   0  0  0  0  0  0  0  0  0  0  0  0
   10.9392   -5.4597   19.3720 C   0  0  0  0  0  0  0  0  0  0  0  0
   -0.9498  -10.0020   13.4737 C   0  0  0  0  0  0  0  0  0  0  0  0
    6.2211   -6.0642   15.4201 O   0  0  0  0  0  0  0  0  0  0  0  0
    8.8145   -7.2747   16.6869 C   0  0  0  0  0  0  0  0  0  0  0  0
   10.2199   -4.1274   18.4621 C   0  0  0  0  0  0  0  0  0  0  0  0
    1.8280   -7.5814   14.8156 C   0  0  0  0  0  0  0  0  0  0  0  0
    7.7994   -4.2143   26.5239 C   0  0  0  0  0  0  0  0  0  0  0  0
    8.8674   -4.5579   16.0417 N   0  0  0  0  0  0  0  0  0  0  0  0
    1.1464   -9.1951   16.5512 N   0  0  0  0  0  0  0  0  0  0  0  0
   -1.2505  -10.8475   12.5738 C   0  0  0  0  0  0  0  0  0  0  0  0
    6.0493   -7.2594   15.4802 He  0  0  0  0  0  0  0  0  0  0  0  0
    2.9269   -6.7299   15.7652 He  0  0  0  0  0  0  0  0  0  0  0  0
    6.8033   -7.4460   16.0694 He  0  0  0  0  0  0  0  0  0  0  0  0
    9.5034   -3.0278   26.0686 He  0  0  0  0  0  0  0  0  0  0  0  0
    6.6196   -6.9230   17.7678 He  0  0  0  0  0  0  0  0  0  0  0  0
    3.8429   -7.4231   14.2746 He  0  0  0  0  0  0  0  0  0  0  0  0
    2.4703  -10.2364   18.3425 He  0  0  0  0  0  0  0  0  0  0  0  0
  1  8  4  0
  1 12  3  0
  1 14  4  0
  1 16  4  0
  1 22  4  0
  2  7  4  0
  2 14  2  0
  2 18  4  0
  2 21  1  0
  2 25  4  0
  3  6  1  0
  3 16  4  0
  3 17  2  0
  3 24  2  0
  3 26  1  0
  4  5  4  0
  4 10  4  0
  4 27  1  0
  5 10  2  0
  5 12  2  0
  5 15  4  0
  5 24  4  0
  6  9  4  0
  6 12  1  0
  6 19  4  0
  6 21  1  0
  7 11  2  0
  7 27  3  0
  8  9  3  0
  8 12  4  0
  8 15  4  0
  8 21  4  0
  9 10  2  0
  9 13  4  0
  9 18  1  0
 10 13  4  0
 10 17  2  0
 10 27  1  0
 11 26  4  0
 12 13  2  0
 12 14  2  0
 12 15  1  0
 12 16  2  0
 12 17  4  0
 12 22  3  0
 12 23  4  0
 13 18  4  0
 13 19  1  0
 13 20  3  0
 13 23  2  0
 13 24  4  0
 13 25  2  0
 14 23  1  0
 14 26  4  0
 15 22  4  0
 15 25  4  0
 16 22  4  0
 16 24  4  0
 16 25  1  0
 18 19  3  0
 18 22  4  0
 19 27  2  0
 20 22  3  0
 20 27  4  0
 23 24  1  0
 25 27  3  0
M  END
$$$$

 Created by Python create_sdf_string function

 34 33  0  0  0  0  0  0  0  0999 V2000
    3.5082   -9.6448   17.5212 N   0  0  0  0  0  0  0  0  0  0  0  0
    9.2666   -5.9745   17.3569 C   0  0  0  0  0  0  0  0  0  0  0  0
   -0.1843   -9.2774   15.7696 C   0  0  0  0  0  0  0  0  0  0  0  0
   10.1170   -4.0101   26.4361 N   0  0  0  0  0  0  0  0  0  0  0  0
    5.8634   -7.6114   15.9468 N   0  0  0  0  0  0  0  0  0  0  0  0
    8.8891   -4.6884   26.9491 N   0  0  0  0  0  0  0  0  0  0  0  0
   -0.5969  -10.3451   14.8743 C   0  0  0  0  0  0  0  0  0  0  0  0
    9.6002   -6.2742   18.5352 C   0  0  0  0  0  0  0  0  0  0  0  0
    8.2218   -2.5542   26.1986 N   0  0  0  0  0  0  0  0  0  0  0  0
    4.0544   -7.6293   15.5366 C   0  0  0  0  0  0  0  0  0  0  0  0
   -0.8625  -11.6277   15.3594 C   0  0  0  0  0  0  0  0  0  0  0  0
    7.2133   -7.2270   15.7748 C   0  0  0  0  0  0  0  0  0  0  0  0
   -1.4109  -12.3522   13.2056 C   0  0  0  0  0  0  0  0  0  0  0  0
    9.6491   -2.6867   25.9665 N   0  0  0  0  0  0  0  0  0  0  0  0
    1.3569  -10.2141   17.4393 C   0  0  0  0  0  0  0  0  0  0  0  0
    7.6913   -6.7700   15.3239 C   0  0  0  0  0  0  0  0  0  0  0  0
   -1.2894  -12.6168   14.5070 C   0  0  0  0  0  0  0  0  0  0  0  0
    2.1047   -8.5781   15.8084 C   0  0  0  0  0  0  0  0  0  0  0  0
   10.2055   -3.8034   17.4191 C   0  0  0  0  0  0  0  0  0  0  0  0
    6.8796   -7.7926   17.6215 C   0  0  0  0  0  0  0  0  0  0  0  0
    3.2685   -8.8016   16.5611 C   0  0  0  0  0  0  0  0  0  0  0  0
    6.0615   -8.1943   17.2719 C   0  0  0  0  0  0  0  0  0  0  0  0
   10.3254   -5.1710   19.2335 C   0  0  0  0  0  0  0  0  0  0  0  0
   -0.7627  -10.1125   13.5149 C   0  0  0  0  0  0  0  0  0  0  0  0
    6.2698   -6.0968   15.1560 O   0  0  0  0  0  0  0  0  0  0  0  0
    8.5787   -7.2907   16.8017 C   0  0  0  0  0  0  0  0  0  0  0  0
    4.2921   -7.5652   15.1985 C   0  0  0  0  0  0  0  0  0  0  0  0
   10.6112   -4.0618   18.6032 C   0  0  0  0  0  0  0  0  0  0  0  0
    1.9158   -7.7255   14.8134 C   0  0  0  0  0  0  0  0  0  0  0  0
    7.7524   -3.8919   26.7141 C   0  0  0  0  0  0  0  0  0  0  0  0
    9.4125   -4.7314   16.7142 C   0  0  0  0  0  0  0  0  0  0  0  0
    2.4962  -10.3281   18.0083 C   0  0  0  0  0  0  0  0  0  0  0  0
    1.1637   -9.3954   16.3814 N   0  0  0  0  0  0  0  0  0  0  0  0
   -1.1900  -11.1159   12.6743 C   0  0  0  0  0  0  0  0  0  0  0  0
  1 21  4  0
  1 32  4  0
  2  8  4  0
  2 26  1  0
  2 31  4  0
  3  7  1  0
  3 33  1  0
  4  6  4  0
  4 14  4  0
  5 12  1  0
  5 22  1  0
  6 30  4  0
  7 11  4  0
  7 24  4  0
  8 23  4  0
  9 14  4  0
  9 30  4  0
 10 27  1  0
 11 17  4  0
 12 16  1  0
 12 26  1  0
 13 17  4  0
 13 34  4  0
 15 32  4  0
 15 33  4  0
 18 21  4  0
 18 29  1  0
 18 33  4  0
 19 28  4  0
 19 31  4  0
 20 22  1  0
 23 28  4  0
 24 34  4  0
M  END
$$$$

 Created by Python create_sdf_string function

 34102  0  0  0  0  0  0  0  0999 V2000
    3.6349   -9.8460   16.9848 N   0  0  0  0  0  0  0  0  0  0  0  0
    9.0220   -6.1098   17.3617 C   0  0  0  0  0  0  0  0  0  0  0  0
    0.4638   -8.9843   15.4778 C   0  0  0  0  0  0  0  0  0  0  0  0
   10.1091   -4.4498   26.4111 O   0  0  0  0  0  0  0  0  0  0  0  0
    8.5829   -4.6835   26.8135 C   0  0  0  0  0  0  0  0  0  0  0  0
   -0.8327  -10.3440   15.5650 I   0  0  0  0  0  0  0  0  0  0  0  0
    9.4843   -6.6719   18.6290 C   0  0  0  0  0  0  0  0  0  0  0  0
    7.5983   -3.0018   26.4220 S   0  0  0  0  0  0  0  0  0  0  0  0
    4.4012   -6.8546   16.3069 C   0  0  0  0  0  0  0  0  0  0  0  0
   -0.8159  -12.0528   15.6896 C   0  0  0  0  0  0  0  0  0  0  0  0
    7.6908   -7.6275   14.5516 S   0  0  0  0  0  0  0  0  0  0  0  0
   -1.3104  -11.9240   13.1226 F   0  0  0  0  0  0  0  0  0  0  0  0
    9.9600   -3.0217   25.4045 N   0  0  0  0  0  0  0  0  0  0  0  0
    1.2313  -10.0252   17.3469 C   0  0  0  0  0  0  0  0  0  0  0  0
   -1.7713  -12.6237   14.6242 C   0  0  0  0  0  0  0  0  0  0  0  0
    1.7261   -8.4004   15.4966 P   0  0  0  0  0  0  0  0  0  0  0  0
   10.5204   -3.4821   17.7106 C   0  0  0  0  0  0  0  0  0  0  0  0
    4.5807   -8.4211   16.5851 C   0  0  0  0  0  0  0  0  0  0  0  0
    5.9182   -8.4464   17.3122 C   0  0  0  0  0  0  0  0  0  0  0  0
   10.5748   -5.0772   18.9088 C   0  0  0  0  0  0  0  0  0  0  0  0
   -1.1508  -10.0993   13.9559 C   0  0  0  0  0  0  0  0  0  0  0  0
    6.0100   -5.9770   15.5670 O   0  0  0  0  0  0  0  0  0  0  0  0
    8.7939   -6.9163   16.9930 C   0  0  0  0  0  0  0  0  0  0  0  0
    5.1882   -8.1367   15.3293 C   0  0  0  0  0  0  0  0  0  0  0  0
   10.5944   -4.7103   18.9517 C   0  0  0  0  0  0  0  0  0  0  0  0
    1.6688   -7.7788   14.3859 Cl  0  0  0  0  0  0  0  0  0  0  0  0
    7.7121   -4.4559   26.8651 C   0  0  0  0  0  0  0  0  0  0  0  0
    9.3749   -5.0478   16.7013 C   0  0  0  0  0  0  0  0  0  0  0  0
    2.3899  -10.4345   17.5803 F   0  0  0  0  0  0  0  0  0  0  0  0
    0.7818   -9.4422   16.2862 N   0  0  0  0  0  0  0  0  0  0  0  0
   -1.2598  -10.8906   12.4299 C   0  0  0  0  0  0  0  0  0  0  0  0
    4.9344   -7.8362   15.3071 He  0  0  0  0  0  0  0  0  0  0  0  0
    9.4935   -6.5704   15.9838 He  0  0  0  0  0  0  0  0  0  0  0  0
    6.4684   -6.6140   17.8172 He  0  0  0  0  0  0  0  0  0  0  0  0
  1  9  1  0
  1 18  4  0
  1 29  4  0
  2  3  1  0
  2  7  3  0
  2  8  4  0
  2 11  2  0
  2 13  2  0
  2 18  4  0
  2 21  1  0
  2 23  1  0
  2 28  4  0
  3  6  1  0
  3  7  4  0
  3 11  1  0
  3 28  4  0
  3 30  1  0
  4  5  4  0
  4  8  3  0
  4 10  3  0
  4 11  2  0
  4 13  4  0
  4 15  2  0
  5  9  2  0
  5 27  4  0
  6 23  4  0
  7  8  3  0
  7 13  4  0
  7 20  4  0
  7 21  3  0
  7 24  4  0
  7 30  3  0
  8 11  3  0
  8 12  3  0
  8 13  4  0
  8 18  3  0
  8 20  3  0
  8 22  1  0
  8 27  4  0
  9 15  2  0
  9 19  2  0
  9 29  3  0
  9 31  1  0
 10 15  4  0
 10 21  3  0
 10 25  4  0
 10 27  2  0
 10 29  1  0
 11 14  2  0
 11 20  3  0
 11 24  4  0
 11 30  2  0
 11 31  4  0
 12 15  4  0
 12 19  3  0
 12 21  4  0
 12 22  1  0
 12 25  2  0
 12 29  1  0
 12 31  4  0
 13 18  2  0
 13 28  2  0
 14 17  1  0
 14 21  3  0
 14 29  4  0
 14 30  4  0
 15 20  3  0
 15 21  2  0
 15 22  4  0
 15 24  4  0
 16 20  2  0
 16 24  1  0
 16 26  3  0
 16 30  4  0
 17 18  1  0
 17 22  4  0
 17 24  4  0
 17 25  4  0
 17 26  2  0
 17 28  4  0
 17 31  2  0
 18 21  3  0
 18 22  2  0
 18 24  4  0
 18 26  3  0
 18 29  3  0
 18 30  2  0
 19 27  2  0
 19 28  4  0
 20 25  4  0
 20 27  1  0
 20 29  1  0
 21 23  3  0
 21 29  3  0
 21 31  4  0
 23 24  1  0
 24 25  1  0
 24 26  4  0
 24 27  2  0
 24 28  3  0
 26 30  3  0
 28 29  1  0
M  END
$$$$

 Created by Python create_sdf_string function

 34 31  0  0  0  0  0  0  0  0999 V2000
    3.5531   -9.7440   17.4330 N   0  0  0  0  0  0  0  0  0  0  0  0
    9.4034   -6.0542   17.3621 C   0  0  0  0  0  0  0  0  0  0  0  0
   -0.2027   -9.2160   15.9360 C   0  0  0  0  0  0  0  0  0  0  0  0
   10.0130   -4.2965   26.2740 N   0  0  0  0  0  0  0  0  0  0  0  0
    5.2537   -8.0138   15.5350 C   0  0  0  0  0  0  0  0  0  0  0  0
    8.9235   -4.8974   26.9977 C   0  0  0  0  0  0  0  0  0  0  0  0
   -0.6942  -10.3056   15.0578 C   0  0  0  0  0  0  0  0  0  0  0  0
    9.8012   -6.3880   18.6302 C   0  0  0  0  0  0  0  0  0  0  0  0
    7.9591   -2.8708   26.1440 S   0  0  0  0  0  0  0  0  0  0  0  0
    4.5330   -7.6084   15.8335 C   0  0  0  0  0  0  0  0  0  0  0  0
   -1.0318  -11.6277   15.4889 C   0  0  0  0  0  0  0  0  0  0  0  0
    7.3014   -7.8992   15.3722 C   0  0  0  0  0  0  0  0  0  0  0  0
   -1.6120  -12.1682   13.3380 C   0  0  0  0  0  0  0  0  0  0  0  0
    9.5519   -3.1008   25.6600 N   0  0  0  0  0  0  0  0  0  0  0  0
    1.3388  -10.2365   17.3196 C   0  0  0  0  0  0  0  0  0  0  0  0
    8.2310   -7.2279   15.9021 N   0  0  0  0  0  0  0  0  0  0  0  0
   -1.5134  -12.5180   14.5840 C   0  0  0  0  0  0  0  0  0  0  0  0
    2.0166   -8.6442   15.6652 C   0  0  0  0  0  0  0  0  0  0  0  0
   10.3493   -3.8740   17.6048 C   0  0  0  0  0  0  0  0  0  0  0  0
    6.5441   -7.3014   17.3208 C   0  0  0  0  0  0  0  0  0  0  0  0
    3.5955   -8.9207   16.5565 C   0  0  0  0  0  0  0  0  0  0  0  0
    5.9039   -8.4298   17.4802 C   0  0  0  0  0  0  0  0  0  0  0  0
   10.4761   -5.4202   19.3679 C   0  0  0  0  0  0  0  0  0  0  0  0
   -0.8540  -10.0106   13.7054 C   0  0  0  0  0  0  0  0  0  0  0  0
    6.3259   -6.0614   15.4625 O   0  0  0  0  0  0  0  0  0  0  0  0
    8.7733   -7.1574   16.4851 C   0  0  0  0  0  0  0  0  0  0  0  0
    5.2554   -8.1560   15.7271 C   0  0  0  0  0  0  0  0  0  0  0  0
   10.7449   -4.2069   18.8414 C   0  0  0  0  0  0  0  0  0  0  0  0
    1.8392   -7.7826   14.6243 Cl  0  0  0  0  0  0  0  0  0  0  0  0
    7.6832   -4.2714   26.9266 C   0  0  0  0  0  0  0  0  0  0  0  0
    9.6311   -4.7601   16.8618 C   0  0  0  0  0  0  0  0  0  0  0  0
    2.4382  -10.3789   17.8630 C   0  0  0  0  0  0  0  0  0  0  0  0
    1.1512   -9.3677   16.3128 N   0  0  0  0  0  0  0  0  0  0  0  0
   -1.3314  -10.9337   12.8449 C   0  0  0  0  0  0  0  0  0  0  0  0
  1 21  4  0
  1 32  4  0
  2  8  4  0
  2 26  1  0
  2 31  4  0
  3  7  1  0
  3 33  1  0
  4  6  4  0
  4 14  4  0
  5 27  1  0
  6 30  4  0
  7 11  4  0
  7 24  4  0
  8 23  4  0
  9 14  4  0
  9 30  4  0
 11 17  4  0
 12 16  1  0
 13 17  4  0
 13 34  4  0
 15 32  4  0
 15 33  4  0
 16 26  1  0
 18 21  4  0
 18 29  1  0
 18 33  4  0
 19 28  4  0
 19 31  4  0
 20 22  1  0
 23 28  4  0
 24 34  4  0
M  END
$$$$

 Created by Python create_sdf_string function

 34103  0  0  0  0  0  0  0  0999 V2000
    3.1442  -10.1632   17.6443 N   0  0  0  0  0  0  0  0  0  0  0  0
   10.6921   -3.7820   26.3271 N   0  0  0  0  0  0  0  0  0  0  0  0
    6.5027   -7.2673   16.1739 F   0  0  0  0  0  0  0  0  0  0  0  0
    8.3603   -5.0932   27.2028 C   0  0  0  0  0  0  0  0  0  0  0  0
   -0.1056  -10.6401   15.4773 C   0  0  0  0  0  0  0  0  0  0  0  0
    9.1335   -5.8685   18.7265 C   0  0  0  0  0  0  0  0  0  0  0  0
    7.8890   -2.6740   25.9595 S   0  0  0  0  0  0  0  0  0  0  0  0
    4.8898   -8.6687   16.8263 C   0  0  0  0  0  0  0  0  0  0  0  0
   -1.1998  -11.4163   15.2571 C   0  0  0  0  0  0  0  0  0  0  0  0
    6.3926   -8.9487   17.3299 C   0  0  0  0  0  0  0  0  0  0  0  0
   -2.2533  -12.2332   13.5014 C   0  0  0  0  0  0  0  0  0  0  0  0
    9.6498   -2.8013   25.2854 N   0  0  0  0  0  0  0  0  0  0  0  0
    1.2914  -10.0304   17.3521 C   0  0  0  0  0  0  0  0  0  0  0  0
    7.2750   -6.0015   16.9877 S   0  0  0  0  0  0  0  0  0  0  0  0
    2.1597   -8.5116   15.6753 C   0  0  0  0  0  0  0  0  0  0  0  0
   10.1557   -3.4525   17.6467 C   0  0  0  0  0  0  0  0  0  0  0  0
    4.3518  -10.1104   15.7972 O   0  0  0  0  0  0  0  0  0  0  0  0
    5.9474   -8.3155   17.8119 N   0  0  0  0  0  0  0  0  0  0  0  0
   10.5433   -5.6769   18.9882 C   0  0  0  0  0  0  0  0  0  0  0  0
   -0.6799   -9.5421   13.5910 C   0  0  0  0  0  0  0  0  0  0  0  0
    6.4474   -5.8992   15.2389 O   0  0  0  0  0  0  0  0  0  0  0  0
    8.3637   -7.2987   16.3994 C   0  0  0  0  0  0  0  0  0  0  0  0
    5.7819   -8.4069   17.3526 Cl  0  0  0  0  0  0  0  0  0  0  0  0
   10.5954   -3.9444   18.7483 C   0  0  0  0  0  0  0  0  0  0  0  0
    1.9973   -7.7892   14.3536 Cl  0  0  0  0  0  0  0  0  0  0  0  0
    8.0854   -4.3765   26.9702 I   0  0  0  0  0  0  0  0  0  0  0  0
    9.6041   -4.7681   16.8007 C   0  0  0  0  0  0  0  0  0  0  0  0
    2.0952  -10.6996   17.8140 C   0  0  0  0  0  0  0  0  0  0  0  0
    1.0397   -9.5057   16.8691 N   0  0  0  0  0  0  0  0  0  0  0  0
   -1.1830  -11.2348   13.0441 C   0  0  0  0  0  0  0  0  0  0  0  0
    9.2808   -6.1303   17.5053 He  0  0  0  0  0  0  0  0  0  0  0  0
   -0.4156   -9.3270   15.8245 He  0  0  0  0  0  0  0  0  0  0  0  0
   -1.1525  -12.3480   14.5711 He  0  0  0  0  0  0  0  0  0  0  0  0
    7.2299   -7.9960   18.4623 He  0  0  0  0  0  0  0  0  0  0  0  0
  1  5  4  0
  1  9  3  0
  1 17  4  0
  1 26  1  0
  2  4  4  0
  2  6  4  0
  2  8  3  0
  2 10  2  0
  2 11  2  0
  2 12  4  0
  3  4  1  0
  3  7  1  0
  3  8  3  0
  3  9  2  0
  3 11  4  0
  3 16  1  0
  3 18  3  0
  3 20  3  0
  3 23  2  0
  3 25  1  0
  3 27  3  0
  3 29  4  0
  4 14  1  0
  4 26  4  0
  4 27  1  0
  5  9  4  0
  5 12  4  0
  5 13  3  0
  5 17  3  0
  5 20  4  0
  5 23  3  0
  6  7  3  0
  6 16  4  0
  6 26  1  0
  7  8  4  0
  7 10  4  0
  7 12  4  0
  7 15  2  0
  7 17  1  0
  7 23  1  0
  7 25  2  0
  7 26  4  0
  7 29  1  0
  8 12  4  0
  8 15  2  0
  8 19  2  0
  8 22  3  0
  8 24  4  0
  8 25  1  0
  8 27  4  0
  8 30  4  0
  9 10  3  0
  9 14  3  0
  9 19  1  0
 10 14  1  0
 10 15  3  0
 10 17  2  0
 10 21  4  0
 10 25  4  0
 10 26  4  0
 10 30  1  0
 11 23  3  0
 12 20  4  0
 13 17  3  0
 13 23  1  0
 13 28  3  0
 13 29  4  0
 13 30  3  0
 14 15  4  0
 14 16  4  0
 14 17  4  0
 14 19  1  0
 14 20  3  0
 14 22  3  0
 14 23  4  0
 14 24  2  0
 14 26  2  0
 14 28  3  0
 14 29  2  0
 15 17  4  0
 15 20  1  0
 15 22  3  0
 16 18  4  0
 16 24  4  0
 17 19  4  0
 17 20  2  0
 17 22  4  0
 17 23  2  0
 17 25  1  0
 17 30  4  0
 18 22  1  0
 18 24  2  0
 19 23  4  0
 19 24  4  0
 20 25  1  0
 20 26  4  0
 20 28  3  0
 20 29  4  0
 20 30  4  0
 22 24  1  0
 23 30  2  0
 24 25  3  0
 25 26  3  0
M  END
$$$$

 Created by Python create_sdf_string function

 34 30  0  0  0  0  0  0  0  0999 V2000
    3.3937  -10.0572   17.7126 N   0  0  0  0  0  0  0  0  0  0  0  0
    9.2992   -5.9146   17.2963 C   0  0  0  0  0  0  0  0  0  0  0  0
   -0.0287   -9.3316   15.9932 C   0  0  0  0  0  0  0  0  0  0  0  0
   10.1891   -4.0210   26.2559 N   0  0  0  0  0  0  0  0  0  0  0  0
    6.0404   -7.5378   16.2016 N   0  0  0  0  0  0  0  0  0  0  0  0
    9.1543   -4.7322   27.0230 C   0  0  0  0  0  0  0  0  0  0  0  0
   -0.5840  -10.3197   15.0738 C   0  0  0  0  0  0  0  0  0  0  0  0
    9.6638   -6.2340   18.6119 C   0  0  0  0  0  0  0  0  0  0  0  0
    8.1217   -2.7780   25.9267 N   0  0  0  0  0  0  0  0  0  0  0  0
    4.7241   -8.3547   16.6037 C   0  0  0  0  0  0  0  0  0  0  0  0
   -1.0173  -11.5772   15.4996 C   0  0  0  0  0  0  0  0  0  0  0  0
    6.3171   -8.3517   17.1655 C   0  0  0  0  0  0  0  0  0  0  0  0
   -1.7769  -12.1336   13.3889 C   0  0  0  0  0  0  0  0  0  0  0  0
    9.6004   -2.9160   25.5228 N   0  0  0  0  0  0  0  0  0  0  0  0
    1.3270  -10.3072   17.5979 C   0  0  0  0  0  0  0  0  0  0  0  0
    7.2302   -6.7721   16.2497 C   0  0  0  0  0  0  0  0  0  0  0  0
   -1.6132  -12.4140   14.6828 C   0  0  0  0  0  0  0  0  0  0  0  0
    2.2325   -8.8935   15.8715 C   0  0  0  0  0  0  0  0  0  0  0  0
   10.3669   -3.7822   17.4678 C   0  0  0  0  0  0  0  0  0  0  0  0
    7.1774   -8.3240   18.1035 C   0  0  0  0  0  0  0  0  0  0  0  0
    3.3500   -9.1161   16.7630 C   0  0  0  0  0  0  0  0  0  0  0  0
    5.7315   -8.6184   18.0202 N   0  0  0  0  0  0  0  0  0  0  0  0
   10.2851   -5.2032   19.3082 C   0  0  0  0  0  0  0  0  0  0  0  0
   -0.7139  -10.0981   13.6657 C   0  0  0  0  0  0  0  0  0  0  0  0
    6.7410   -5.7826   15.4490 O   0  0  0  0  0  0  0  0  0  0  0  0
    8.6893   -7.0435   16.4154 C   0  0  0  0  0  0  0  0  0  0  0  0
    5.6324   -8.2677   17.0514 C   0  0  0  0  0  0  0  0  0  0  0  0
   10.6974   -4.0417   18.7276 C   0  0  0  0  0  0  0  0  0  0  0  0
    2.0963   -8.0500   14.5868 Cl  0  0  0  0  0  0  0  0  0  0  0  0
    7.9250   -4.0794   26.8245 N   0  0  0  0  0  0  0  0  0  0  0  0
    9.5575   -4.6529   16.7724 C   0  0  0  0  0  0  0  0  0  0  0  0
    2.2045  -10.6120   18.1295 C   0  0  0  0  0  0  0  0  0  0  0  0
    1.2425   -9.5232   16.4491 N   0  0  0  0  0  0  0  0  0  0  0  0
   -1.3341  -10.9993   12.8746 C   0  0  0  0  0  0  0  0  0  0  0  0
  1 21  4  0
  1 32  4  0
  2  8  4  0
  2 26  1  0
  2 31  4  0
  3  7  1  0
  3 33  1  0
  4  6  4  0
  4 14  4  0
  5 16  1  0
  6 30  4  0
  7 11  4  0
  7 24  4  0
  8 23  4  0
  9 14  4  0
  9 30  4  0
 11 17  4  0
 13 17  4  0
 13 34  4  0
 15 32  4  0
 15 33  4  0
 16 25  2  0
 16 26  1  0
 18 21  4  0
 18 29  1  0
 18 33  4  0
 19 28  4  0
 19 31  4  0
 23 28  4  0
 24 34  4  0
M  END
$$$$

 Created by Python create_sdf_string function

 34 64  0  0  0  0  0  0  0  0999 V2000
    3.3779  -10.1659   17.4921 N   0  0  0  0  0  0  0  0  0  0  0  0
    9.7542   -5.6664   16.9299 C   0  0  0  0  0  0  0  0  0  0  0  0
   10.0093   -4.0687   25.6854 N   0  0  0  0  0  0  0  0  0  0  0  0
    5.1506   -9.4625   14.0227 C   0  0  0  0  0  0  0  0  0  0  0  0
    8.3101   -4.5266   27.0058 C   0  0  0  0  0  0  0  0  0  0  0  0
   -0.4603  -10.1257   15.0976 C   0  0  0  0  0  0  0  0  0  0  0  0
    9.8979   -6.6094   18.8733 C   0  0  0  0  0  0  0  0  0  0  0  0
    8.2870   -2.7029   26.0608 N   0  0  0  0  0  0  0  0  0  0  0  0
   -1.2161  -11.9011   15.5385 O   0  0  0  0  0  0  0  0  0  0  0  0
   -1.8444  -12.2463   13.1813 C   0  0  0  0  0  0  0  0  0  0  0  0
    9.7963   -2.8917   25.6293 N   0  0  0  0  0  0  0  0  0  0  0  0
    0.9618   -9.6903   17.5673 C   0  0  0  0  0  0  0  0  0  0  0  0
   -1.2393  -13.0417   14.8649 C   0  0  0  0  0  0  0  0  0  0  0  0
    1.9508   -8.3132   16.1738 C   0  0  0  0  0  0  0  0  0  0  0  0
   10.8908   -3.8167   17.4377 C   0  0  0  0  0  0  0  0  0  0  0  0
    7.8538   -8.7755   17.2708 C   0  0  0  0  0  0  0  0  0  0  0  0
    3.0470  -10.4651   16.7048 C   0  0  0  0  0  0  0  0  0  0  0  0
   10.1517   -5.3188   19.2634 C   0  0  0  0  0  0  0  0  0  0  0  0
   -0.8564  -10.0092   13.7623 C   0  0  0  0  0  0  0  0  0  0  0  0
    6.8902   -5.5678   15.4611 O   0  0  0  0  0  0  0  0  0  0  0  0
    4.8506   -8.5237   17.3138 P   0  0  0  0  0  0  0  0  0  0  0  0
    8.1371   -3.8939   27.1271 N   0  0  0  0  0  0  0  0  0  0  0  0
    9.5703   -5.0448   16.3686 C   0  0  0  0  0  0  0  0  0  0  0  0
    2.1190  -11.0307   18.0958 C   0  0  0  0  0  0  0  0  0  0  0  0
    1.4437   -9.4349   17.0798 C   0  0  0  0  0  0  0  0  0  0  0  0
   -1.1581  -10.5747   12.2024 C   0  0  0  0  0  0  0  0  0  0  0  0
   -0.0353   -9.5278   16.0864 He  0  0  0  0  0  0  0  0  0  0  0  0
    5.3103   -7.4765   18.4859 He  0  0  0  0  0  0  0  0  0  0  0  0
    7.7802   -7.4486   16.6867 He  0  0  0  0  0  0  0  0  0  0  0  0
    8.1956   -6.6471   16.8705 He  0  0  0  0  0  0  0  0  0  0  0  0
    6.4630   -9.0748   18.1816 He  0  0  0  0  0  0  0  0  0  0  0  0
    8.8785   -7.5837   16.3149 He  0  0  0  0  0  0  0  0  0  0  0  0
   10.2939   -3.7799   18.4428 He  0  0  0  0  0  0  0  0  0  0  0  0
    2.5672   -8.1336   14.4915 He  0  0  0  0  0  0  0  0  0  0  0  0
  1 24  4  0
  2  7  4  0
  2 17  1  0
  2 23  4  0
  3 11  4  0
  3 13  2  0
  3 18  3  0
  3 21  4  0
  3 26  2  0
  4  6  1  0
  4  8  4  0
  4 10  1  0
  4 11  3  0
  4 13  2  0
  4 20  1  0
  4 22  1  0
  4 24  4  0
  5 15  1  0
  5 22  4  0
  6  9  4  0
  6 11  3  0
  6 12  4  0
  6 14  1  0
  6 17  4  0
  6 19  4  0
  6 24  4  0
  6 25  3  0
  7 18  4  0
  7 19  3  0
  7 23  2  0
  8 11  4  0
  8 22  4  0
  9 13  4  0
  9 21  2  0
  9 23  4  0
 10 14  2  0
 10 17  3  0
 10 26  4  0
 11 16  1  0
 11 23  3  0
 12 14  1  0
 12 24  4  0
 12 25  4  0
 13 16  4  0
 13 17  1  0
 13 22  2  0
 13 26  2  0
 14 17  4  0
 14 21  2  0
 14 23  2  0
 14 25  3  0
 14 26  4  0
 15 22  4  0
 15 23  4  0
 15 25  4  0
 16 25  2  0
 16 26  2  0
 17 20  1  0
 17 26  3  0
 19 24  4  0
 19 26  4  0
 21 23  1  0
 22 23  1  0
 23 25  2  0
M  END
$$$$

 Created by Python create_sdf_string function

 34 31  0  0  0  0  0  0  0  0999 V2000
    3.3681  -10.1160   17.9419 N   0  0  0  0  0  0  0  0  0  0  0  0
    9.4923   -5.8356   17.3022 C   0  0  0  0  0  0  0  0  0  0  0  0
   -0.1359   -9.3287   15.9638 C   0  0  0  0  0  0  0  0  0  0  0  0
    9.8903   -4.1823   25.9307 N   0  0  0  0  0  0  0  0  0  0  0  0
    5.2803   -8.4610   15.6896 C   0  0  0  0  0  0  0  0  0  0  0  0
    8.8317   -4.6279   26.8247 C   0  0  0  0  0  0  0  0  0  0  0  0
   -0.5994  -10.3664   15.0334 C   0  0  0  0  0  0  0  0  0  0  0  0
    9.7632   -6.1597   18.5923 C   0  0  0  0  0  0  0  0  0  0  0  0
    8.3314   -2.5433   26.1004 N   0  0  0  0  0  0  0  0  0  0  0  0
    5.1579   -8.2582   16.9141 C   0  0  0  0  0  0  0  0  0  0  0  0
   -0.9546  -11.6715   15.4314 C   0  0  0  0  0  0  0  0  0  0  0  0
    7.1945   -7.6074   16.3572 C   0  0  0  0  0  0  0  0  0  0  0  0
   -1.5873  -12.1503   13.2589 C   0  0  0  0  0  0  0  0  0  0  0  0
    9.5592   -2.8800   25.5193 N   0  0  0  0  0  0  0  0  0  0  0  0
    1.0607  -10.3622   17.6865 C   0  0  0  0  0  0  0  0  0  0  0  0
    7.6006   -6.9176   16.2603 C   0  0  0  0  0  0  0  0  0  0  0  0
   -1.4720  -12.5147   14.5526 C   0  0  0  0  0  0  0  0  0  0  0  0
    2.2951   -8.9592   16.1323 C   0  0  0  0  0  0  0  0  0  0  0  0
   10.4299   -3.7853   17.3134 C   0  0  0  0  0  0  0  0  0  0  0  0
    7.3048   -8.6833   17.1753 C   0  0  0  0  0  0  0  0  0  0  0  0
    3.2993   -9.2536   16.9574 C   0  0  0  0  0  0  0  0  0  0  0  0
    6.4244   -8.9267   18.1219 C   0  0  0  0  0  0  0  0  0  0  0  0
   10.3658   -5.1480   19.2458 C   0  0  0  0  0  0  0  0  0  0  0  0
   -0.7150  -10.0010   13.6881 C   0  0  0  0  0  0  0  0  0  0  0  0
    6.9881   -5.7023   15.6030 O   0  0  0  0  0  0  0  0  0  0  0  0
    8.7957   -7.5138   16.2821 C   0  0  0  0  0  0  0  0  0  0  0  0
    5.1491   -8.1748   16.8556 C   0  0  0  0  0  0  0  0  0  0  0  0
   10.6767   -3.9579   18.6180 C   0  0  0  0  0  0  0  0  0  0  0  0
    2.4423   -8.1716   15.0470 O   0  0  0  0  0  0  0  0  0  0  0  0
    7.9111   -3.6401   26.9501 N   0  0  0  0  0  0  0  0  0  0  0  0
    9.7551   -4.7364   16.5880 C   0  0  0  0  0  0  0  0  0  0  0  0
    2.1820  -10.6991   18.3520 C   0  0  0  0  0  0  0  0  0  0  0  0
    1.1294   -9.5734   16.5877 N   0  0  0  0  0  0  0  0  0  0  0  0
   -1.2363  -10.8947   12.8424 C   0  0  0  0  0  0  0  0  0  0  0  0
  1 21  4  0
  1 32  4  0
  2  8  4  0
  2 26  1  0
  2 31  4  0
  3  7  1  0
  3 33  1  0
  4  6  4  0
  4 14  4  0
  5 10  1  0
  6 30  4  0
  7 11  4  0
  7 24  4  0
  8 23  4  0
  9 14  4  0
  9 30  4  0
 10 27  1  0
 11 17  4  0
 12 26  1  0
 13 17  4  0
 13 34  4  0
 15 32  4  0
 15 33  4  0
 18 21  4  0
 18 29  1  0
 18 33  4  0
 19 28  4  0
 19 31  4  0
 20 22  4  0
 23 28  4  0
 24 34  4  0
M  END
$$$$

 Created by Python create_sdf_string function

 34 94  0  0  0  0  0  0  0  0999 V2000
    3.4714   -9.9600   17.5043 N   0  0  0  0  0  0  0  0  0  0  0  0
    9.7272   -5.4264   17.2501 C   0  0  0  0  0  0  0  0  0  0  0  0
    9.8308   -4.3590   25.4852 N   0  0  0  0  0  0  0  0  0  0  0  0
    5.6679   -9.3380   14.8920 O   0  0  0  0  0  0  0  0  0  0  0  0
    8.7090   -4.8567   27.1034 C   0  0  0  0  0  0  0  0  0  0  0  0
   -0.4595  -10.1319   14.7617 C   0  0  0  0  0  0  0  0  0  0  0  0
    9.9442   -5.9683   18.4586 N   0  0  0  0  0  0  0  0  0  0  0  0
    8.6210   -2.5422   26.4169 N   0  0  0  0  0  0  0  0  0  0  0  0
    4.6313   -7.8365   18.0024 Cl  0  0  0  0  0  0  0  0  0  0  0  0
   -0.9422  -11.6992   15.7326 C   0  0  0  0  0  0  0  0  0  0  0  0
   -1.4210  -11.7882   13.5925 C   0  0  0  0  0  0  0  0  0  0  0  0
    9.8257   -2.9161   25.6499 N   0  0  0  0  0  0  0  0  0  0  0  0
    1.0586  -10.3167   17.4730 F   0  0  0  0  0  0  0  0  0  0  0  0
    7.3392   -6.7862   17.2988 C   0  0  0  0  0  0  0  0  0  0  0  0
   -1.8495  -12.2297   13.7949 C   0  0  0  0  0  0  0  0  0  0  0  0
    1.8905   -9.0642   15.9473 C   0  0  0  0  0  0  0  0  0  0  0  0
    9.8797   -3.8170   17.4750 C   0  0  0  0  0  0  0  0  0  0  0  0
    7.9535   -9.2658   17.4518 P   0  0  0  0  0  0  0  0  0  0  0  0
    3.2234   -9.9388   16.3471 Cl  0  0  0  0  0  0  0  0  0  0  0  0
    6.7737   -8.6030   18.7783 C   0  0  0  0  0  0  0  0  0  0  0  0
   10.3884   -4.8105   19.2562 C   0  0  0  0  0  0  0  0  0  0  0  0
   -0.4688   -9.9895   13.3822 Br  0  0  0  0  0  0  0  0  0  0  0  0
    7.0564   -5.4949   15.8975 O   0  0  0  0  0  0  0  0  0  0  0  0
    9.3853   -7.5735   16.6663 C   0  0  0  0  0  0  0  0  0  0  0  0
   10.7617   -4.5460   18.4640 C   0  0  0  0  0  0  0  0  0  0  0  0
    2.1122   -8.2440   15.2752 O   0  0  0  0  0  0  0  0  0  0  0  0
    8.1583   -3.8654   27.0184 N   0  0  0  0  0  0  0  0  0  0  0  0
    9.5797   -4.4892   16.3812 C   0  0  0  0  0  0  0  0  0  0  0  0
    2.5736  -11.1022   18.6072 C   0  0  0  0  0  0  0  0  0  0  0  0
    0.9585   -9.7356   16.8962 C   0  0  0  0  0  0  0  0  0  0  0  0
   -1.0716  -11.2093   12.4940 C   0  0  0  0  0  0  0  0  0  0  0  0
    0.1077   -9.3163   16.0664 He  0  0  0  0  0  0  0  0  0  0  0  0
    6.9108   -7.4617   15.8793 He  0  0  0  0  0  0  0  0  0  0  0  0
    5.0048   -9.1239   17.8973 He  0  0  0  0  0  0  0  0  0  0  0  0
  1  4  2  0
  1  5  1  0
  1  8  4  0
  1 12  3  0
  1 14  1  0
  1 16  2  0
  1 19  3  0
  1 29  4  0
  2  4  3  0
  2  7  1  0
  2  9  3  0
  2 14  2  0
  2 19  4  0
  2 24  2  0
  2 28  4  0
  3 12  4  0
  3 14  2  0
  3 23  2  0
  4 17  4  0
  4 21  4  0
  4 26  4  0
  4 27  1  0
  4 28  3  0
  4 31  2  0
  5 11  4  0
  5 14  1  0
  5 24  2  0
  5 27  4  0
  6  7  4  0
  6 10  4  0
  6 14  1  0
  6 16  2  0
  6 26  4  0
  6 30  1  0
  7 13  1  0
  7 18  3  0
  7 21  4  0
  7 23  3  0
  8 19  2  0
  8 27  4  0
  9 11  4  0
  9 12  2  0
  9 19  2  0
  9 24  1  0
  9 25  3  0
  9 26  4  0
  9 30  2  0
 10 12  2  0
 10 14  4  0
 10 15  4  0
 10 29  2  0
 11 15  4  0
 11 22  1  0
 11 31  4  0
 12 14  1  0
 12 18  3  0
 12 19  4  0
 12 20  1  0
 13 23  4  0
 13 25  3  0
 13 29  4  0
 13 30  4  0
 14 16  4  0
 14 18  2  0
 14 26  1  0
 15 17  2  0
 15 20  3  0
 15 25  4  0
 16 19  4  0
 16 21  1  0
 16 26  1  0
 16 29  1  0
 17 22  3  0
 17 25  4  0
 17 28  4  0
 18 19  1  0
 18 21  1  0
 18 22  1  0
 18 27  2  0
 18 29  1  0
 18 30  4  0
 18 31  4  0
 19 22  3  0
 19 24  3  0
 19 28  2  0
 19 31  1  0
 21 25  4  0
 21 29  2  0
 22 29  1  0
 22 31  4  0
 23 30  3  0
 24 27  3  0
 24 31  4  0
 30 31  2  0
M  END
$$$$

 Created by Python create_sdf_string function

 34 30  0  0  0  0  0  0  0  0999 V2000
    3.5039  -10.0925   17.9909 N   0  0  0  0  0  0  0  0  0  0  0  0
    9.5115   -5.7853   17.3411 C   0  0  0  0  0  0  0  0  0  0  0  0
   -0.0231   -9.4847   15.9582 C   0  0  0  0  0  0  0  0  0  0  0  0
    9.8938   -4.3086   25.7824 N   0  0  0  0  0  0  0  0  0  0  0  0
    5.7208   -8.3327   15.8956 C   0  0  0  0  0  0  0  0  0  0  0  0
    8.9208   -4.7531   26.7693 C   0  0  0  0  0  0  0  0  0  0  0  0
   -0.5436  -10.3651   14.9545 C   0  0  0  0  0  0  0  0  0  0  0  0
    9.9321   -6.0916   18.5526 N   0  0  0  0  0  0  0  0  0  0  0  0
    8.5772   -2.5593   26.3277 N   0  0  0  0  0  0  0  0  0  0  0  0
    5.4792   -8.5865   17.3895 C   0  0  0  0  0  0  0  0  0  0  0  0
   -1.1392  -11.5192   15.2968 C   0  0  0  0  0  0  0  0  0  0  0  0
    7.0438   -7.6480   16.3931 C   0  0  0  0  0  0  0  0  0  0  0  0
   -1.6297  -12.0257   13.1176 C   0  0  0  0  0  0  0  0  0  0  0  0
    9.6851   -2.9432   25.5573 N   0  0  0  0  0  0  0  0  0  0  0  0
    1.2582  -10.6627   17.7315 C   0  0  0  0  0  0  0  0  0  0  0  0
    7.1923   -7.2353   16.6886 C   0  0  0  0  0  0  0  0  0  0  0  0
   -1.7068  -12.3242   14.3964 C   0  0  0  0  0  0  0  0  0  0  0  0
    2.2934   -9.1059   16.1402 C   0  0  0  0  0  0  0  0  0  0  0  0
   10.3079   -3.6216   17.3367 C   0  0  0  0  0  0  0  0  0  0  0  0
    7.5629   -8.3998   17.3059 C   0  0  0  0  0  0  0  0  0  0  0  0
    3.4356   -9.3125   16.9395 C   0  0  0  0  0  0  0  0  0  0  0  0
    6.7464   -8.5520   18.4978 C   0  0  0  0  0  0  0  0  0  0  0  0
   10.5428   -5.0532   19.2121 C   0  0  0  0  0  0  0  0  0  0  0  0
   -0.4082  -10.0886   13.5823 C   0  0  0  0  0  0  0  0  0  0  0  0
    7.0711   -5.5544   15.7577 O   0  0  0  0  0  0  0  0  0  0  0  0
    9.0184   -7.1967   16.6209 C   0  0  0  0  0  0  0  0  0  0  0  0
    5.1838   -8.8780   17.4271 C   0  0  0  0  0  0  0  0  0  0  0  0
   10.6673   -3.8318   18.6046 C   0  0  0  0  0  0  0  0  0  0  0  0
    2.2060   -8.3267   15.0796 O   0  0  0  0  0  0  0  0  0  0  0  0
    8.0892   -3.6867   27.0795 N   0  0  0  0  0  0  0  0  0  0  0  0
    9.5844   -4.5202   16.6403 C   0  0  0  0  0  0  0  0  0  0  0  0
    2.3428  -10.7987   18.4483 C   0  0  0  0  0  0  0  0  0  0  0  0
    1.1970   -9.7864   16.6457 C   0  0  0  0  0  0  0  0  0  0  0  0
   -0.9975  -10.9272   12.6413 C   0  0  0  0  0  0  0  0  0  0  0  0
  1 21  4  0
  1 32  4  0
  2  8  4  0
  2 26  1  0
  2 31  4  0
  3  7  1  0
  3 33  1  0
  4  6  4  0
  4 14  4  0
  6 30  4  0
  7 11  4  0
  7 24  4  0
  8 23  4  0
  9 14  4  0
  9 30  4  0
 10 27  1  0
 11 17  4  0
 12 16  1  0
 13 17  4  0
 13 34  4  0
 15 32  4  0
 15 33  4  0
 18 21  4  0
 18 29  1  0
 18 33  4  0
 19 28  4  0
 19 31  4  0
 20 22  1  0
 23 28  4  0
 24 34  4  0
M  END
$$$$

 Created by Python create_sdf_string function

 34 50  0  0  0  0  0  0  0  0999 V2000
    3.3282   -9.5616   18.0693 N   0  0  0  0  0  0  0  0  0  0  0  0
    9.1758   -5.7071   17.1268 C   0  0  0  0  0  0  0  0  0  0  0  0
   -0.3962   -9.2677   15.7774 C   0  0  0  0  0  0  0  0  0  0  0  0
    9.8219   -4.2465   25.8557 N   0  0  0  0  0  0  0  0  0  0  0  0
    9.2891   -4.8321   26.9874 C   0  0  0  0  0  0  0  0  0  0  0  0
   -0.6466  -10.0791   14.7756 O   0  0  0  0  0  0  0  0  0  0  0  0
   -1.4023  -11.6411   15.0236 C   0  0  0  0  0  0  0  0  0  0  0  0
    5.0169   -7.4366   17.5917 O   0  0  0  0  0  0  0  0  0  0  0  0
   -1.4329  -11.9607   13.0163 Br  0  0  0  0  0  0  0  0  0  0  0  0
   10.1343   -3.2348   25.4512 N   0  0  0  0  0  0  0  0  0  0  0  0
    1.0531  -10.4525   18.0655 C   0  0  0  0  0  0  0  0  0  0  0  0
   -2.0529  -12.0132   14.5814 C   0  0  0  0  0  0  0  0  0  0  0  0
    2.7998   -9.1289   16.1992 C   0  0  0  0  0  0  0  0  0  0  0  0
   10.2542   -3.5653   17.2901 C   0  0  0  0  0  0  0  0  0  0  0  0
    8.3391   -8.5131   18.6101 S   0  0  0  0  0  0  0  0  0  0  0  0
    7.0087   -8.1196   18.7165 C   0  0  0  0  0  0  0  0  0  0  0  0
   10.5370   -4.9022   19.1546 C   0  0  0  0  0  0  0  0  0  0  0  0
   -0.4014   -9.2313   13.8319 C   0  0  0  0  0  0  0  0  0  0  0  0
    7.0194   -5.4016   15.6416 O   0  0  0  0  0  0  0  0  0  0  0  0
    9.2195   -7.5124   16.8074 C   0  0  0  0  0  0  0  0  0  0  0  0
    6.5850   -9.4745   16.4110 N   0  0  0  0  0  0  0  0  0  0  0  0
   10.8069   -3.6374   18.7552 C   0  0  0  0  0  0  0  0  0  0  0  0
    2.5447   -8.4751   15.0864 O   0  0  0  0  0  0  0  0  0  0  0  0
    7.8171   -3.6197   27.0702 N   0  0  0  0  0  0  0  0  0  0  0  0
    1.4142  -10.0941   16.7561 C   0  0  0  0  0  0  0  0  0  0  0  0
   -0.8030  -10.9645   12.2299 C   0  0  0  0  0  0  0  0  0  0  0  0
    5.2364   -8.8279   15.2783 He  0  0  0  0  0  0  0  0  0  0  0  0
    9.5899   -6.0790   18.5612 He  0  0  0  0  0  0  0  0  0  0  0  0
    8.5402   -2.7586   26.6747 He  0  0  0  0  0  0  0  0  0  0  0  0
    6.6844   -7.0150   17.2642 He  0  0  0  0  0  0  0  0  0  0  0  0
    7.4913   -7.0747   16.6809 He  0  0  0  0  0  0  0  0  0  0  0  0
    3.6329   -9.5182   16.5145 He  0  0  0  0  0  0  0  0  0  0  0  0
    9.3914   -4.4116   16.7743 He  0  0  0  0  0  0  0  0  0  0  0  0
    2.1922  -10.4906   18.4889 He  0  0  0  0  0  0  0  0  0  0  0  0
  1  3  4  0
  1 16  2  0
  1 25  1  0
  2  3  2  0
  2 23  4  0
  3  6  1  0
  3  8  4  0
  3  9  1  0
  3 16  3  0
  3 25  1  0
  4  5  3  0
  4  8  1  0
  4 15  2  0
  4 21  2  0
  5  7  2  0
  5 11  3  0
  5 16  2  0
  5 23  3  0
  5 24  1  0
  6 15  3  0
  6 18  4  0
  6 21  4  0
  7 12  4  0
  7 21  4  0
  7 24  4  0
  8 10  3  0
  8 12  1  0
  8 13  3  0
  8 16  2  0
  8 25  4  0
  9 16  3  0
  9 26  4  0
 10 26  1  0
 11 25  4  0
 12 20  4  0
 12 21  4  0
 13 14  3  0
 13 23  1  0
 13 25  4  0
 14 22  4  0
 15 20  2  0
 15 22  2  0
 15 24  3  0
 15 25  4  0
 16 26  1  0
 17 22  4  0
 18 26  4  0
 19 21  2  0
 20 21  4  0
 20 22  1  0
M  END
$$$$

 Created by Python create_sdf_string function

 34 36  0  0  0  0  0  0  0  0999 V2000
    3.4514  -10.0064   18.0421 N   0  0  0  0  0  0  0  0  0  0  0  0
    9.3896   -5.7870   17.4529 C   0  0  0  0  0  0  0  0  0  0  0  0
    0.0040   -9.3697   15.9588 C   0  0  0  0  0  0  0  0  0  0  0  0
   10.0280   -4.3855   25.9514 N   0  0  0  0  0  0  0  0  0  0  0  0
    5.0352   -8.8335   16.1094 C   0  0  0  0  0  0  0  0  0  0  0  0
    9.0347   -4.7430   26.9179 C   0  0  0  0  0  0  0  0  0  0  0  0
   -0.5758  -10.2122   14.9217 C   0  0  0  0  0  0  0  0  0  0  0  0
    9.8784   -5.9602   18.6350 C   0  0  0  0  0  0  0  0  0  0  0  0
    8.6152   -2.6329   26.2622 N   0  0  0  0  0  0  0  0  0  0  0  0
    6.5080   -7.3605   16.7770 N   0  0  0  0  0  0  0  0  0  0  0  0
   -1.3443  -11.3221   15.2638 C   0  0  0  0  0  0  0  0  0  0  0  0
    4.9724   -7.8695   17.1108 C   0  0  0  0  0  0  0  0  0  0  0  0
   -1.5883  -11.8258   12.9809 C   0  0  0  0  0  0  0  0  0  0  0  0
    9.8025   -3.0490   25.5694 N   0  0  0  0  0  0  0  0  0  0  0  0
    1.1282  -10.4919   17.8197 C   0  0  0  0  0  0  0  0  0  0  0  0
    7.3493   -6.8282   16.3559 C   0  0  0  0  0  0  0  0  0  0  0  0
   -1.8291  -12.1341   14.2724 C   0  0  0  0  0  0  0  0  0  0  0  0
    2.3915   -9.2079   16.1296 C   0  0  0  0  0  0  0  0  0  0  0  0
   10.2377   -3.5413   17.3546 C   0  0  0  0  0  0  0  0  0  0  0  0
    8.1467   -8.3242   17.7650 C   0  0  0  0  0  0  0  0  0  0  0  0
    3.4540   -9.3498   16.9280 C   0  0  0  0  0  0  0  0  0  0  0  0
    6.6662   -8.2900   18.0649 C   0  0  0  0  0  0  0  0  0  0  0  0
   10.5438   -4.8732   19.2439 C   0  0  0  0  0  0  0  0  0  0  0  0
   -0.3544   -9.8866   13.5855 C   0  0  0  0  0  0  0  0  0  0  0  0
    7.1064   -5.6263   15.6016 O   0  0  0  0  0  0  0  0  0  0  0  0
    8.7252   -7.1195   16.8460 C   0  0  0  0  0  0  0  0  0  0  0  0
    6.3077   -8.6909   16.2941 C   0  0  0  0  0  0  0  0  0  0  0  0
   10.7539   -3.6822   18.5743 C   0  0  0  0  0  0  0  0  0  0  0  0
    2.5042   -8.6059   14.9462 O   0  0  0  0  0  0  0  0  0  0  0  0
    8.0955   -3.6984   27.0790 N   0  0  0  0  0  0  0  0  0  0  0  0
    9.4701   -4.5314   16.7673 C   0  0  0  0  0  0  0  0  0  0  0  0
    2.2545  -10.6025   18.5244 C   0  0  0  0  0  0  0  0  0  0  0  0
    1.2031   -9.7103   16.6521 C   0  0  0  0  0  0  0  0  0  0  0  0
   -0.9030  -10.7142   12.6066 C   0  0  0  0  0  0  0  0  0  0  0  0
  1 21  4  0
  1 32  4  0
  2  8  4  0
  2 26  1  0
  2 31  4  0
  3  7  1  0
  3 33  1  0
  4  6  4  0
  4 14  4  0
  5 12  1  0
  5 21  1  0
  5 27  1  0
  6 30  4  0
  7 11  4  0
  7 24  4  0
  8 23  4  0
  9 14  4  0
  9 30  4  0
 10 16  1  0
 10 22  1  0
 11 17  4  0
 13 17  4  0
 13 34  4  0
 15 32  4  0
 15 33  4  0
 16 25  2  0
 16 26  1  0
 18 21  4  0
 18 29  1  0
 18 33  4  0
 19 28  4  0
 19 31  4  0
 20 22  1  0
 20 26  1  0
 23 28  4  0
 24 34  4  0
M  END
$$$$

 Created by Python create_sdf_string function

 34 69  0  0  0  0  0  0  0  0999 V2000
    2.8911  -10.2256   18.2234 N   0  0  0  0  0  0  0  0  0  0  0  0
    9.6388   -6.0892   17.5958 C   0  0  0  0  0  0  0  0  0  0  0  0
    9.7912   -4.1524   26.1853 N   0  0  0  0  0  0  0  0  0  0  0  0
    3.5698   -9.0280   15.3939 C   0  0  0  0  0  0  0  0  0  0  0  0
    8.7696   -4.4451   27.0685 S   0  0  0  0  0  0  0  0  0  0  0  0
   -0.3274  -10.2415   14.5586 O   0  0  0  0  0  0  0  0  0  0  0  0
    9.7136   -5.5240   18.3726 O   0  0  0  0  0  0  0  0  0  0  0  0
    5.3184   -6.8529   16.5898 N   0  0  0  0  0  0  0  0  0  0  0  0
   -1.0832  -11.1376   15.2652 O   0  0  0  0  0  0  0  0  0  0  0  0
    3.9035   -8.6619   17.6153 Cl  0  0  0  0  0  0  0  0  0  0  0  0
   -1.8950  -11.8429   12.4228 N   0  0  0  0  0  0  0  0  0  0  0  0
    9.3386   -3.3822   25.8054 N   0  0  0  0  0  0  0  0  0  0  0  0
    1.3112  -10.7167   17.6616 C   0  0  0  0  0  0  0  0  0  0  0  0
   -2.3290  -12.2670   14.3930 C   0  0  0  0  0  0  0  0  0  0  0  0
    2.5738   -9.0425   16.1677 C   0  0  0  0  0  0  0  0  0  0  0  0
   10.4368   -3.7026   16.9815 C   0  0  0  0  0  0  0  0  0  0  0  0
    9.4671   -7.5071   16.4469 C   0  0  0  0  0  0  0  0  0  0  0  0
    6.9576   -8.4106   17.7691 C   0  0  0  0  0  0  0  0  0  0  0  0
   10.9701   -4.6573   19.1019 C   0  0  0  0  0  0  0  0  0  0  0  0
    6.9362   -6.0263   15.4465 O   0  0  0  0  0  0  0  0  0  0  0  0
    8.4103   -7.3156   17.1890 C   0  0  0  0  0  0  0  0  0  0  0  0
    7.0501   -8.1060   17.1672 C   0  0  0  0  0  0  0  0  0  0  0  0
    2.3189   -8.7838   14.8955 F   0  0  0  0  0  0  0  0  0  0  0  0
    8.2313   -3.8440   27.2238 N   0  0  0  0  0  0  0  0  0  0  0  0
    9.9634   -4.4375   17.1826 C   0  0  0  0  0  0  0  0  0  0  0  0
    2.5914  -10.6792   18.1323 C   0  0  0  0  0  0  0  0  0  0  0  0
    1.2332   -9.8604   16.6386 C   0  0  0  0  0  0  0  0  0  0  0  0
    0.0829   -9.2079   16.4326 He  0  0  0  0  0  0  0  0  0  0  0  0
    8.7223   -2.6506   26.0865 He  0  0  0  0  0  0  0  0  0  0  0  0
    6.1753   -7.1930   16.3223 He  0  0  0  0  0  0  0  0  0  0  0  0
    3.5358   -9.8238   17.9719 He  0  0  0  0  0  0  0  0  0  0  0  0
   -0.1134  -10.0940   13.6377 He  0  0  0  0  0  0  0  0  0  0  0  0
   10.7301   -4.2783   18.4831 He  0  0  0  0  0  0  0  0  0  0  0  0
   -0.8837  -10.7734   12.2224 He  0  0  0  0  0  0  0  0  0  0  0  0
  1  4  2  0
  1  7  2  0
  1 26  4  0
  2  7  4  0
  2 10  4  0
  2 21  1  0
  2 25  4  0
  3  4  2  0
  3  5  3  0
  3  8  1  0
  3 12  4  0
  3 17  2  0
  4 10  2  0
  4 14  2  0
  4 17  4  0
  4 19  4  0
  4 25  3  0
  4 26  1  0
  5 13  1  0
  5 15  4  0
  5 16  3  0
  5 24  4  0
  6  9  4  0
  6 10  2  0
  6 24  2  0
  7 17  3  0
  7 19  4  0
  8 10  3  0
  8 11  2  0
  8 15  4  0
  8 16  2  0
  8 17  4  0
  8 18  2  0
  8 22  4  0
  8 24  4  0
  9 12  4  0
  9 13  4  0
  9 14  4  0
  9 17  3  0
  9 24  1  0
  9 25  1  0
 10 12  3  0
 10 15  3  0
 10 17  1  0
 10 19  1  0
 10 27  2  0
 11 14  4  0
 11 18  1  0
 12 17  4  0
 12 22  2  0
 12 27  1  0
 13 22  4  0
 13 26  4  0
 13 27  4  0
 14 17  3  0
 14 22  3  0
 14 25  4  0
 14 26  2  0
 15 20  2  0
 15 27  4  0
 16 17  3  0
 17 18  1  0
 17 27  1  0
 18 22  2  0
 19 20  1  0
 19 26  3  0
 21 23  2  0
 22 26  1  0
 23 24  1  0
M  END
$$$$

 Created by Python create_sdf_string function

 34 35  0  0  0  0  0  0  0  0999 V2000
    3.2229  -10.3964   18.3402 N   0  0  0  0  0  0  0  0  0  0  0  0
    9.4837   -5.8289   17.4847 C   0  0  0  0  0  0  0  0  0  0  0  0
    0.1065   -9.4955   15.9369 C   0  0  0  0  0  0  0  0  0  0  0  0
    9.9144   -4.3590   26.1343 N   0  0  0  0  0  0  0  0  0  0  0  0
    3.7592   -8.2751   15.7057 C   0  0  0  0  0  0  0  0  0  0  0  0
    8.9139   -4.6338   27.1209 N   0  0  0  0  0  0  0  0  0  0  0  0
   -0.4694  -10.2693   14.8560 C   0  0  0  0  0  0  0  0  0  0  0  0
    9.9542   -5.8690   18.7533 C   0  0  0  0  0  0  0  0  0  0  0  0
    8.4188   -2.6233   26.1098 N   0  0  0  0  0  0  0  0  0  0  0  0
    5.4573   -7.5226   16.2537 N   0  0  0  0  0  0  0  0  0  0  0  0
   -1.3191  -11.2779   15.1771 C   0  0  0  0  0  0  0  0  0  0  0  0
    4.5744   -8.7103   17.1178 C   0  0  0  0  0  0  0  0  0  0  0  0
   -1.7117  -11.7181   12.9280 C   0  0  0  0  0  0  0  0  0  0  0  0
    9.5721   -3.1423   25.5126 N   0  0  0  0  0  0  0  0  0  0  0  0
    1.1072  -10.6810   17.7580 C   0  0  0  0  0  0  0  0  0  0  0  0
    6.5959   -6.9597   16.1114 C   0  0  0  0  0  0  0  0  0  0  0  0
   -1.9233  -11.9463   14.2318 C   0  0  0  0  0  0  0  0  0  0  0  0
    2.4416   -9.2898   16.3183 C   0  0  0  0  0  0  0  0  0  0  0  0
   10.5046   -3.7187   17.1107 C   0  0  0  0  0  0  0  0  0  0  0  0
    8.1787   -7.3940   16.8343 C   0  0  0  0  0  0  0  0  0  0  0  0
    3.4354   -9.4414   17.2062 C   0  0  0  0  0  0  0  0  0  0  0  0
    7.0722   -8.4643   17.7139 C   0  0  0  0  0  0  0  0  0  0  0  0
   10.6683   -4.7566   19.2004 C   0  0  0  0  0  0  0  0  0  0  0  0
   -0.1897  -10.0250   13.5340 C   0  0  0  0  0  0  0  0  0  0  0  0
    6.8398   -5.8020   15.3764 O   0  0  0  0  0  0  0  0  0  0  0  0
    8.7476   -7.0793   17.0038 C   0  0  0  0  0  0  0  0  0  0  0  0
    6.2081   -8.3471   17.3579 C   0  0  0  0  0  0  0  0  0  0  0  0
   10.9149   -3.6877   18.3832 C   0  0  0  0  0  0  0  0  0  0  0  0
    2.4768   -8.6581   15.0428 F   0  0  0  0  0  0  0  0  0  0  0  0
    8.0085   -3.5656   27.1303 N   0  0  0  0  0  0  0  0  0  0  0  0
    9.7283   -4.7114   16.6378 C   0  0  0  0  0  0  0  0  0  0  0  0
    2.1122  -10.9155   18.5680 C   0  0  0  0  0  0  0  0  0  0  0  0
    1.2397   -9.8583   16.6812 C   0  0  0  0  0  0  0  0  0  0  0  0
   -0.8387  -10.7537   12.5805 C   0  0  0  0  0  0  0  0  0  0  0  0
  1 21  4  0
  1 32  4  0
  2  8  4  0
  2 26  1  0
  2 31  4  0
  3  7  1  0
  3 33  1  0
  4  6  4  0
  4 14  4  0
  5 29  1  0
  6 30  4  0
  7 11  4  0
  7 24  4  0
  8 23  4  0
  9 14  4  0
  9 30  4  0
 10 16  1  0
 11 17  4  0
 12 21  1  0
 13 17  4  0
 13 34  4  0
 15 32  4  0
 15 33  4  0
 16 20  1  0
 16 25  2  0
 18 21  4  0
 18 29  1  0
 18 33  4  0
 19 28  4  0
 19 31  4  0
 20 22  1  0
 20 26  1  0
 22 27  2  0
 23 28  4  0
 24 34  4  0
M  END
$$$$

 Created by Python create_sdf_string function

 34 47  0  0  0  0  0  0  0  0999 V2000
    3.1997  -10.2074   18.4617 N   0  0  0  0  0  0  0  0  0  0  0  0
    9.6209   -5.9040   17.5909 C   0  0  0  0  0  0  0  0  0  0  0  0
   -0.0836   -8.8428   16.3032 C   0  0  0  0  0  0  0  0  0  0  0  0
   10.0845   -4.3157   26.2397 N   0  0  0  0  0  0  0  0  0  0  0  0
    9.0921   -4.8182   26.8302 N   0  0  0  0  0  0  0  0  0  0  0  0
    9.9975   -5.8752   18.4656 C   0  0  0  0  0  0  0  0  0  0  0  0
    8.5208   -2.8779   25.6593 C   0  0  0  0  0  0  0  0  0  0  0  0
    5.1842   -7.0181   16.9444 N   0  0  0  0  0  0  0  0  0  0  0  0
   -1.3270  -11.1134   15.3113 C   0  0  0  0  0  0  0  0  0  0  0  0
   -2.0967  -11.7523   12.7192 C   0  0  0  0  0  0  0  0  0  0  0  0
    9.9953   -2.8206   25.3595 N   0  0  0  0  0  0  0  0  0  0  0  0
    1.1434  -10.4106   17.5104 C   0  0  0  0  0  0  0  0  0  0  0  0
   -1.5408  -11.7371   14.2283 C   0  0  0  0  0  0  0  0  0  0  0  0
    2.6126   -9.3369   16.1202 C   0  0  0  0  0  0  0  0  0  0  0  0
    7.1411   -8.6278   17.7074 C   0  0  0  0  0  0  0  0  0  0  0  0
   10.7337   -4.4821   18.5717 C   0  0  0  0  0  0  0  0  0  0  0  0
   -0.4420  -10.1638   13.4130 B   0  0  0  0  0  0  0  0  0  0  0  0
    6.4788   -6.1403   15.2615 O   0  0  0  0  0  0  0  0  0  0  0  0
    8.6987   -6.9108   16.7519 C   0  0  0  0  0  0  0  0  0  0  0  0
   10.9270   -3.9786   18.1163 C   0  0  0  0  0  0  0  0  0  0  0  0
    2.6692   -8.5332   15.2635 F   0  0  0  0  0  0  0  0  0  0  0  0
    9.8874   -4.7165   16.6500 C   0  0  0  0  0  0  0  0  0  0  0  0
    2.1503  -10.8373   18.1476 C   0  0  0  0  0  0  0  0  0  0  0  0
    1.1456   -9.7585   15.8884 C   0  0  0  0  0  0  0  0  0  0  0  0
   -0.9893  -10.5137   12.7039 C   0  0  0  0  0  0  0  0  0  0  0  0
    5.2019   -7.1852   15.3124 He  0  0  0  0  0  0  0  0  0  0  0  0
   -0.5455  -10.7062   15.1544 He  0  0  0  0  0  0  0  0  0  0  0  0
    3.8690   -9.1957   16.4021 He  0  0  0  0  0  0  0  0  0  0  0  0
    8.2184   -7.3534   15.7412 He  0  0  0  0  0  0  0  0  0  0  0  0
   10.3493   -3.1922   16.9913 He  0  0  0  0  0  0  0  0  0  0  0  0
    8.3082   -6.7313   17.4521 He  0  0  0  0  0  0  0  0  0  0  0  0
    3.6616   -8.2129   18.1241 He  0  0  0  0  0  0  0  0  0  0  0  0
    5.7305   -8.7773   15.8489 He  0  0  0  0  0  0  0  0  0  0  0  0
    7.4270   -3.5191   27.0730 He  0  0  0  0  0  0  0  0  0  0  0  0
  1 11  1  0
  1 13  2  0
  1 23  4  0
  2  6  4  0
  2 20  1  0
  2 22  4  0
  2 23  1  0
  3  6  2  0
  3 24  1  0
  4  5  1  0
  4  8  2  0
  4 11  4  0
  4 13  4  0
  4 20  1  0
  4 21  3  0
  4 22  4  0
  4 23  1  0
  5  6  1  0
  5  8  4  0
  5 13  1  0
  6 16  4  0
  6 17  1  0
  7  8  4  0
  7 15  3  0
  8 11  3  0
  8 14  1  0
  8 23  4  0
  9 13  4  0
  9 21  2  0
 10 11  2  0
 10 13  4  0
 10 14  2  0
 10 18  1  0
 10 25  4  0
 11 15  3  0
 12 23  4  0
 12 24  4  0
 13 22  4  0
 14 24  4  0
 15 20  3  0
 16 20  2  0
 16 22  2  0
 17 25  4  0
 19 22  3  0
 19 24  2  0
 20 21  3  0
 22 23  1  0
M  END
$$$$

 Created by Python create_sdf_string function

 34 33  0  0  0  0  0  0  0  0999 V2000
    3.2026  -10.4199   18.5244 N   0  0  0  0  0  0  0  0  0  0  0  0
    9.6003   -5.7100   17.3440 C   0  0  0  0  0  0  0  0  0  0  0  0
    0.0470   -9.2847   15.8095 C   0  0  0  0  0  0  0  0  0  0  0  0
   10.0913   -4.2441   26.1891 N   0  0  0  0  0  0  0  0  0  0  0  0
    5.2328   -7.4133   15.9407 C   0  0  0  0  0  0  0  0  0  0  0  0
    8.9824   -4.6671   26.9479 N   0  0  0  0  0  0  0  0  0  0  0  0
   -0.5650  -10.1688   14.8453 C   0  0  0  0  0  0  0  0  0  0  0  0
   10.1492   -5.7460   18.5627 C   0  0  0  0  0  0  0  0  0  0  0  0
    8.4280   -2.7380   25.8261 C   0  0  0  0  0  0  0  0  0  0  0  0
    5.4421   -7.6710   16.7100 N   0  0  0  0  0  0  0  0  0  0  0  0
   -1.3408  -11.2505   15.2307 C   0  0  0  0  0  0  0  0  0  0  0  0
    3.9911   -9.0251   16.7571 C   0  0  0  0  0  0  0  0  0  0  0  0
   -1.8505  -11.6944   12.9758 C   0  0  0  0  0  0  0  0  0  0  0  0
    9.7940   -3.0633   25.4808 N   0  0  0  0  0  0  0  0  0  0  0  0
    1.1148  -10.5095   17.5635 C   0  0  0  0  0  0  0  0  0  0  0  0
    7.5456   -7.3102   16.0726 C   0  0  0  0  0  0  0  0  0  0  0  0
   -1.9761  -11.9730   14.3057 C   0  0  0  0  0  0  0  0  0  0  0  0
    2.4251   -9.1257   16.1622 C   0  0  0  0  0  0  0  0  0  0  0  0
   10.4641   -3.5318   16.9742 C   0  0  0  0  0  0  0  0  0  0  0  0
    7.3473   -7.0121   16.4992 N   0  0  0  0  0  0  0  0  0  0  0  0
    4.1870   -9.2316   17.3449 C   0  0  0  0  0  0  0  0  0  0  0  0
    7.0269   -8.6207   17.4723 C   0  0  0  0  0  0  0  0  0  0  0  0
   10.8517   -4.6140   19.0222 C   0  0  0  0  0  0  0  0  0  0  0  0
   -0.3999   -9.9031   13.5126 C   0  0  0  0  0  0  0  0  0  0  0  0
    6.6065   -5.9035   15.1736 O   0  0  0  0  0  0  0  0  0  0  0  0
    8.9561   -7.0059   16.7510 C   0  0  0  0  0  0  0  0  0  0  0  0
    5.5871   -8.8916   16.4525 C   0  0  0  0  0  0  0  0  0  0  0  0
   10.9485   -3.5265   18.2367 C   0  0  0  0  0  0  0  0  0  0  0  0
    2.6941   -8.4456   15.0866 F   0  0  0  0  0  0  0  0  0  0  0  0
    7.9048   -3.7218   26.7248 N   0  0  0  0  0  0  0  0  0  0  0  0
    9.6955   -4.6134   16.5547 C   0  0  0  0  0  0  0  0  0  0  0  0
    2.0549  -10.7501   18.4044 C   0  0  0  0  0  0  0  0  0  0  0  0
    1.2163   -9.6701   16.5276 C   0  0  0  0  0  0  0  0  0  0  0  0
   -1.0433  -10.6660   12.5691 C   0  0  0  0  0  0  0  0  0  0  0  0
  1 21  4  0
  1 32  4  0
  2  8  4  0
  2 26  1  0
  2 31  4  0
  3  7  1  0
  3 33  1  0
  4  6  4  0
  4 14  4  0
  5 10  1  0
  6 30  4  0
  7 11  4  0
  7 24  4  0
  8 23  4  0
  9 14  4  0
  9 30  4  0
 11 17  4  0
 12 18  4  0
 12 21  4  0
 13 17  4  0
 13 34  4  0
 15 32  4  0
 15 33  4  0
 16 20  1  0
 16 26  1  0
 18 29  1  0
 18 33  4  0
 19 28  4  0
 19 31  4  0
 20 26  1  0
 22 27  1  0
 23 28  4  0
 24 34  4  0
M  END
$$$$

 Created by Python create_sdf_string function

 34 79  0  0  0  0  0  0  0  0999 V2000
    3.5184  -10.6679   18.5605 N   0  0  0  0  0  0  0  0  0  0  0  0
    9.3892   -5.4660   17.0618 O   0  0  0  0  0  0  0  0  0  0  0  0
    0.2088   -9.5198   15.9071 C   0  0  0  0  0  0  0  0  0  0  0  0
    9.9150   -4.4511   26.0135 N   0  0  0  0  0  0  0  0  0  0  0  0
    5.7789   -7.1911   14.7342 O   0  0  0  0  0  0  0  0  0  0  0  0
    8.8802   -4.5249   27.0575 N   0  0  0  0  0  0  0  0  0  0  0  0
   -0.7262  -10.0041   14.8156 C   0  0  0  0  0  0  0  0  0  0  0  0
    9.8969   -6.0104   18.6649 C   0  0  0  0  0  0  0  0  0  0  0  0
    8.5899   -2.5973   25.6333 C   0  0  0  0  0  0  0  0  0  0  0  0
    5.4438   -7.5225   16.1600 N   0  0  0  0  0  0  0  0  0  0  0  0
   -1.1171  -11.4155   15.1218 C   0  0  0  0  0  0  0  0  0  0  0  0
    4.1979   -8.5004   15.8165 N   0  0  0  0  0  0  0  0  0  0  0  0
   -2.2223  -11.3522   12.5469 C   0  0  0  0  0  0  0  0  0  0  0  0
    9.8567   -3.2304   25.7537 C   0  0  0  0  0  0  0  0  0  0  0  0
    1.5714  -10.4338   17.8062 C   0  0  0  0  0  0  0  0  0  0  0  0
   -1.7060  -11.8947   14.3756 C   0  0  0  0  0  0  0  0  0  0  0  0
    1.7521   -8.9322   15.8721 C   0  0  0  0  0  0  0  0  0  0  0  0
   10.3098   -3.3377   16.5016 C   0  0  0  0  0  0  0  0  0  0  0  0
    4.8505   -9.3650   16.3393 C   0  0  0  0  0  0  0  0  0  0  0  0
    6.8306   -8.7410   17.6256 C   0  0  0  0  0  0  0  0  0  0  0  0
   10.8583   -5.0703   18.9827 C   0  0  0  0  0  0  0  0  0  0  0  0
   -0.1776   -9.5391   13.4720 C   0  0  0  0  0  0  0  0  0  0  0  0
    6.5958   -5.8231   15.2494 O   0  0  0  0  0  0  0  0  0  0  0  0
    9.4609   -6.6008   16.6790 C   0  0  0  0  0  0  0  0  0  0  0  0
   11.1241   -3.6027   18.2208 C   0  0  0  0  0  0  0  0  0  0  0  0
    2.9068   -8.4090   15.4292 F   0  0  0  0  0  0  0  0  0  0  0  0
    8.2145   -3.4616   26.3834 N   0  0  0  0  0  0  0  0  0  0  0  0
    9.7312   -4.8394   16.3817 C   0  0  0  0  0  0  0  0  0  0  0  0
    2.1369  -10.5171   18.3225 C   0  0  0  0  0  0  0  0  0  0  0  0
    7.5838   -7.2879   16.8956 He  0  0  0  0  0  0  0  0  0  0  0  0
    6.8932   -6.0702   16.7428 He  0  0  0  0  0  0  0  0  0  0  0  0
    6.4989   -8.4573   17.1144 He  0  0  0  0  0  0  0  0  0  0  0  0
    1.3407   -9.5625   16.4586 He  0  0  0  0  0  0  0  0  0  0  0  0
   -1.4259  -11.0047   12.4030 He  0  0  0  0  0  0  0  0  0  0  0  0
  1  5  1  0
  1  8  1  0
  1  9  3  0
  1 29  4  0
  2  7  3  0
  2  8  4  0
  2 11  3  0
  2 24  1  0
  2 25  4  0
  2 28  2  0
  3  7  1  0
  3 18  2  0
  3 19  3  0
  3 25  4  0
  4  6  4  0
  4 14  4  0
  4 19  1  0
  4 25  3  0
  5  8  1  0
  5 10  4  0
  5 11  2  0
  5 16  3  0
  5 18  2  0
  5 19  2  0
  5 23  1  0
  5 24  4  0
  5 28  4  0
  6  8  1  0
  6 11  4  0
  6 15  3  0
  6 26  3  0
  6 27  4  0
  6 28  2  0
  7 11  4  0
  7 22  4  0
  7 23  3  0
  7 26  2  0
  7 27  1  0
  7 29  4  0
  8 10  1  0
  8 18  4  0
  8 20  4  0
  8 21  4  0
  8 24  1  0
  9 10  4  0
  9 14  4  0
  9 16  3  0
  9 26  2  0
  9 27  4  0
 10 19  1  0
 10 20  2  0
 10 21  4  0
 10 22  1  0
 10 27  2  0
 10 28  1  0
 11 16  4  0
 11 22  2  0
 11 27  1  0
 12 14  2  0
 12 16  4  0
 12 18  1  0
 12 19  4  0
 12 20  3  0
 12 21  4  0
 12 23  1  0
 12 24  1  0
 13 16  1  0
 13 20  2  0
 14 15  4  0
 14 24  1  0
 15 19  1  0
 15 26  3  0
 15 27  3  0
 15 29  4  0
 17 19  2  0
 18 24  3  0
 21 25  4  0
 24 26  2  0
 27 28  3  0
M  END
$$$$

 Created by Python create_sdf_string function

 34 33  0  0  0  0  0  0  0  0999 V2000
    3.6075  -10.4295   18.2013 N   0  0  0  0  0  0  0  0  0  0  0  0
    9.4396   -5.7221   17.2190 C   0  0  0  0  0  0  0  0  0  0  0  0
    0.0847   -9.2973   15.8880 C   0  0  0  0  0  0  0  0  0  0  0  0
   10.0561   -4.4303   26.2313 N   0  0  0  0  0  0  0  0  0  0  0  0
    5.5483   -7.3857   15.6752 C   0  0  0  0  0  0  0  0  0  0  0  0
    8.8109   -4.5793   26.9441 N   0  0  0  0  0  0  0  0  0  0  0  0
   -0.5089  -10.1736   14.8398 C   0  0  0  0  0  0  0  0  0  0  0  0
   10.0078   -5.7993   18.3955 C   0  0  0  0  0  0  0  0  0  0  0  0
    8.6614   -2.5843   25.6948 C   0  0  0  0  0  0  0  0  0  0  0  0
    5.4333   -7.8565   16.1359 C   0  0  0  0  0  0  0  0  0  0  0  0
   -1.1961  -11.2674   15.1939 C   0  0  0  0  0  0  0  0  0  0  0  0
    3.8449   -8.8261   16.4387 N   0  0  0  0  0  0  0  0  0  0  0  0
   -1.9048  -11.5382   12.9125 C   0  0  0  0  0  0  0  0  0  0  0  0
    9.9508   -3.1902   25.5254 N   0  0  0  0  0  0  0  0  0  0  0  0
    1.4307  -10.3494   17.6772 C   0  0  0  0  0  0  0  0  0  0  0  0
    7.4846   -7.4661   16.8445 C   0  0  0  0  0  0  0  0  0  0  0  0
   -1.9288  -11.9601   14.2197 C   0  0  0  0  0  0  0  0  0  0  0  0
    2.3079   -9.1824   16.0001 C   0  0  0  0  0  0  0  0  0  0  0  0
   10.5162   -3.6222   16.8911 C   0  0  0  0  0  0  0  0  0  0  0  0
    6.9277   -6.7643   16.0457 C   0  0  0  0  0  0  0  0  0  0  0  0
    4.3950   -9.0289   16.9046 C   0  0  0  0  0  0  0  0  0  0  0  0
    6.7905   -8.7655   17.6678 C   0  0  0  0  0  0  0  0  0  0  0  0
   10.7910   -4.7772   18.8535 C   0  0  0  0  0  0  0  0  0  0  0  0
   -0.4404   -9.7953   13.5308 C   0  0  0  0  0  0  0  0  0  0  0  0
    6.8821   -5.6712   15.2454 O   0  0  0  0  0  0  0  0  0  0  0  0
    8.9552   -6.9078   16.9102 C   0  0  0  0  0  0  0  0  0  0  0  0
    6.2025   -8.6143   17.2635 C   0  0  0  0  0  0  0  0  0  0  0  0
   11.0182   -3.7013   18.1217 C   0  0  0  0  0  0  0  0  0  0  0  0
    2.7273   -8.3448   15.1400 F   0  0  0  0  0  0  0  0  0  0  0  0
    7.9351   -3.4766   26.5660 N   0  0  0  0  0  0  0  0  0  0  0  0
    9.6415   -4.5250   16.4107 C   0  0  0  0  0  0  0  0  0  0  0  0
    2.5223  -10.6279   18.2376 C   0  0  0  0  0  0  0  0  0  0  0  0
    1.2824   -9.6417   16.5302 N   0  0  0  0  0  0  0  0  0  0  0  0
   -1.2048  -10.4470   12.5612 C   0  0  0  0  0  0  0  0  0  0  0  0
  1 32  4  0
  2  8  4  0
  2 26  1  0
  2 31  4  0
  3  7  1  0
  3 33  1  0
  4  6  4  0
  4 14  4  0
  5 10  4  0
  6 30  4  0
  7 11  4  0
  7 24  4  0
  8 23  4  0
  9 14  4  0
  9 30  4  0
 11 17  4  0
 12 18  4  0
 12 21  4  0
 13 17  4  0
 13 34  4  0
 15 32  4  0
 15 33  4  0
 16 20  4  0
 16 22  4  0
 16 26  1  0
 18 29  1  0
 18 33  4  0
 19 28  4  0
 19 31  4  0
 20 25  2  0
 22 27  4  0
 23 28  4  0
 24 34  4  0
M  END
$$$$

 Created by Python create_sdf_string function

 34 80  0  0  0  0  0  0  0  0999 V2000
    3.5683  -10.0056   18.0765 C   0  0  0  0  0  0  0  0  0  0  0  0
    9.2382   -5.7875   16.9866 N   0  0  0  0  0  0  0  0  0  0  0  0
    0.2239   -9.2971   16.2608 C   0  0  0  0  0  0  0  0  0  0  0  0
   10.0703   -4.2888   26.0775 N   0  0  0  0  0  0  0  0  0  0  0  0
    9.0982   -4.4141   27.1470 N   0  0  0  0  0  0  0  0  0  0  0  0
   -0.5659  -10.5426   15.1951 C   0  0  0  0  0  0  0  0  0  0  0  0
    9.8947   -5.8050   18.3346 C   0  0  0  0  0  0  0  0  0  0  0  0
    8.7058   -2.2620   25.9215 C   0  0  0  0  0  0  0  0  0  0  0  0
    4.3672   -7.4233   15.8264 F   0  0  0  0  0  0  0  0  0  0  0  0
   -1.3509  -11.3481   14.9357 C   0  0  0  0  0  0  0  0  0  0  0  0
    4.2811   -8.4182   15.8270 S   0  0  0  0  0  0  0  0  0  0  0  0
   -2.2115  -11.5938   12.7533 F   0  0  0  0  0  0  0  0  0  0  0  0
    9.8043   -3.6086   25.6118 N   0  0  0  0  0  0  0  0  0  0  0  0
    1.2108  -10.1932   17.6254 C   0  0  0  0  0  0  0  0  0  0  0  0
    8.4084   -7.9189   16.8115 C   0  0  0  0  0  0  0  0  0  0  0  0
   -2.0872  -11.8640   14.0963 C   0  0  0  0  0  0  0  0  0  0  0  0
   10.4881   -3.7543   16.4946 C   0  0  0  0  0  0  0  0  0  0  0  0
    6.7627   -6.1562   15.9092 Br  0  0  0  0  0  0  0  0  0  0  0  0
    6.4724   -8.3256   17.6368 C   0  0  0  0  0  0  0  0  0  0  0  0
   -0.5282  -10.0995   13.5264 C   0  0  0  0  0  0  0  0  0  0  0  0
    6.8925   -5.4381   15.7133 O   0  0  0  0  0  0  0  0  0  0  0  0
    8.9611   -6.9816   17.0010 C   0  0  0  0  0  0  0  0  0  0  0  0
   11.0689   -3.6843   18.3916 C   0  0  0  0  0  0  0  0  0  0  0  0
    7.8274   -3.4251   26.4754 N   0  0  0  0  0  0  0  0  0  0  0  0
    9.1231   -4.4250   16.1696 C   0  0  0  0  0  0  0  0  0  0  0  0
    2.4200  -10.5764   18.3317 C   0  0  0  0  0  0  0  0  0  0  0  0
    1.3977   -9.6430   15.7885 N   0  0  0  0  0  0  0  0  0  0  0  0
   -0.7359  -10.1081   12.7191 C   0  0  0  0  0  0  0  0  0  0  0  0
    5.7275   -7.0857   14.1593 He  0  0  0  0  0  0  0  0  0  0  0  0
    2.9603   -9.1516   16.1441 He  0  0  0  0  0  0  0  0  0  0  0  0
    5.0590  -10.0145   16.8207 He  0  0  0  0  0  0  0  0  0  0  0  0
   10.7836   -4.8818   19.0459 He  0  0  0  0  0  0  0  0  0  0  0  0
    6.5445  -10.1318   16.6253 He  0  0  0  0  0  0  0  0  0  0  0  0
    2.6384   -8.3003   15.1769 He  0  0  0  0  0  0  0  0  0  0  0  0
  1  6  1  0
  1 13  2  0
  1 17  3  0
  1 26  4  0
  1 27  1  0
  2  7  4  0
  2 15  4  0
  2 18  3  0
  2 22  1  0
  2 25  4  0
  3  6  1  0
  3  9  3  0
  3 11  4  0
  3 13  4  0
  3 28  2  0
  4  5  4  0
  4  9  3  0
  4 11  3  0
  4 13  4  0
  4 20  4  0
  4 25  4  0
  5  9  3  0
  5 14  1  0
  5 18  4  0
  5 20  3  0
  5 24  4  0
  6  9  4  0
  6 10  4  0
  6 11  4  0
  6 20  4  0
  7 18  4  0
  8 13  4  0
  8 14  3  0
  8 15  4  0
  8 20  4  0
  8 24  4  0
  8 27  2  0
  9 14  1  0
  9 17  4  0
  9 23  4  0
  9 25  2  0
  9 27  3  0
 10 11  3  0
 10 15  3  0
 10 16  4  0
 10 18  1  0
 10 25  3  0
 11 14  1  0
 11 16  4  0
 11 18  1  0
 11 19  4  0
 11 21  4  0
 11 25  1  0
 11 26  1  0
 11 27  4  0
 12 13  3  0
 12 19  1  0
 12 22  3  0
 12 27  2  0
 12 28  4  0
 14 18  1  0
 14 26  4  0
 14 27  4  0
 15 19  4  0
 15 21  3  0
 15 27  4  0
 15 28  3  0
 16 18  1  0
 17 18  4  0
 17 20  1  0
 17 21  2  0
 17 23  4  0
 17 24  2  0
 17 25  4  0
 18 20  1  0
 19 27  1  0
 20 28  4  0
 21 24  4  0
 22 24  2  0
 22 27  4  0
M  END
$$$$

 Created by Python create_sdf_string function

 34 35  0  0  0  0  0  0  0  0999 V2000
    3.6026  -10.4639   18.0986 C   0  0  0  0  0  0  0  0  0  0  0  0
    9.4492   -5.8057   17.2289 C   0  0  0  0  0  0  0  0  0  0  0  0
    0.0653   -9.4198   16.0041 C   0  0  0  0  0  0  0  0  0  0  0  0
   10.0586   -4.3951   26.2476 N   0  0  0  0  0  0  0  0  0  0  0  0
    5.6538   -7.4371   15.3841 C   0  0  0  0  0  0  0  0  0  0  0  0
    8.8906   -4.4617   27.0472 N   0  0  0  0  0  0  0  0  0  0  0  0
   -0.5221  -10.2273   14.9273 C   0  0  0  0  0  0  0  0  0  0  0  0
    9.9787   -5.8421   18.4475 C   0  0  0  0  0  0  0  0  0  0  0  0
    8.6722   -2.5490   25.7414 C   0  0  0  0  0  0  0  0  0  0  0  0
    4.7120   -7.7175   15.5332 C   0  0  0  0  0  0  0  0  0  0  0  0
   -1.3713  -11.3025   15.1683 C   0  0  0  0  0  0  0  0  0  0  0  0
    4.0164   -8.9193   16.2052 C   0  0  0  0  0  0  0  0  0  0  0  0
   -1.9052  -11.4254   12.9069 C   0  0  0  0  0  0  0  0  0  0  0  0
    9.9325   -3.2440   25.4203 N   0  0  0  0  0  0  0  0  0  0  0  0
    1.5773  -10.4182   17.6870 C   0  0  0  0  0  0  0  0  0  0  0  0
    7.6582   -7.5101   16.7323 C   0  0  0  0  0  0  0  0  0  0  0  0
   -2.0687  -11.8709   14.1516 C   0  0  0  0  0  0  0  0  0  0  0  0
    2.5041   -9.1334   16.0862 C   0  0  0  0  0  0  0  0  0  0  0  0
   10.3755   -3.6110   16.8944 C   0  0  0  0  0  0  0  0  0  0  0  0
    6.8454   -6.6965   15.8581 C   0  0  0  0  0  0  0  0  0  0  0  0
    4.9808   -9.5286   16.8316 C   0  0  0  0  0  0  0  0  0  0  0  0
    6.7826   -8.4749   17.4394 C   0  0  0  0  0  0  0  0  0  0  0  0
   10.7618   -4.7915   18.8623 N   0  0  0  0  0  0  0  0  0  0  0  0
   -0.3182   -9.8148   13.6204 C   0  0  0  0  0  0  0  0  0  0  0  0
    7.0010   -5.5593   15.4412 O   0  0  0  0  0  0  0  0  0  0  0  0
    8.9350   -7.1725   16.6979 C   0  0  0  0  0  0  0  0  0  0  0  0
    6.1691   -9.2798   16.7458 C   0  0  0  0  0  0  0  0  0  0  0  0
   10.9649   -3.7096   18.0950 C   0  0  0  0  0  0  0  0  0  0  0  0
    2.6475   -8.3611   15.0748 C   0  0  0  0  0  0  0  0  0  0  0  0
    7.9770   -3.3625   26.6932 N   0  0  0  0  0  0  0  0  0  0  0  0
    9.5304   -4.6048   16.4322 C   0  0  0  0  0  0  0  0  0  0  0  0
    2.5115  -10.6226   18.2814 C   0  0  0  0  0  0  0  0  0  0  0  0
    1.3495   -9.6855   16.5325 N   0  0  0  0  0  0  0  0  0  0  0  0
   -1.0356  -10.3807   12.6113 C   0  0  0  0  0  0  0  0  0  0  0  0
  1 32  4  0
  2  8  4  0
  2 26  1  0
  2 31  4  0
  3  7  1  0
  3 33  1  0
  4  6  4  0
  4 14  4  0
  5 10  4  0
  5 20  4  0
  6 30  4  0
  7 11  4  0
  7 24  4  0
  8 23  4  0
  9 14  4  0
  9 30  4  0
 11 17  4  0
 12 18  4  0
 12 21  1  0
 13 17  4  0
 13 34  4  0
 15 32  4  0
 15 33  4  0
 16 20  1  0
 16 22  4  0
 16 26  1  0
 18 29  4  0
 18 33  4  0
 19 28  4  0
 19 31  4  0
 20 25  2  0
 21 27  1  0
 22 27  1  0
 23 28  4  0
 24 34  4  0
M  END
$$$$

 Created by Python create_sdf_string function

 34 87  0  0  0  0  0  0  0  0999 V2000
    3.5481  -10.5221   18.0191 C   0  0  0  0  0  0  0  0  0  0  0  0
    9.3126   -5.9785   17.2874 C   0  0  0  0  0  0  0  0  0  0  0  0
    0.0842   -9.1530   16.1552 C   0  0  0  0  0  0  0  0  0  0  0  0
    5.5296   -7.7134   15.0056 S   0  0  0  0  0  0  0  0  0  0  0  0
    8.7890   -3.9696   27.2647 N   0  0  0  0  0  0  0  0  0  0  0  0
   -0.3150  -10.1268   15.1366 C   0  0  0  0  0  0  0  0  0  0  0  0
   10.0761   -6.0605   18.2071 C   0  0  0  0  0  0  0  0  0  0  0  0
    8.9614   -2.8731   25.7757 C   0  0  0  0  0  0  0  0  0  0  0  0
    3.8774   -9.5000   15.5740 C   0  0  0  0  0  0  0  0  0  0  0  0
   -1.6057  -11.1659   14.9221 C   0  0  0  0  0  0  0  0  0  0  0  0
    3.3462   -8.6020   15.4345 C   0  0  0  0  0  0  0  0  0  0  0  0
   -2.1696  -11.2583   12.6353 C   0  0  0  0  0  0  0  0  0  0  0  0
    9.8386   -3.0804   25.3159 N   0  0  0  0  0  0  0  0  0  0  0  0
    1.6438  -10.3325   17.5019 C   0  0  0  0  0  0  0  0  0  0  0  0
    7.4219   -8.0397   16.2310 B   0  0  0  0  0  0  0  0  0  0  0  0
   -2.1529  -12.1123   14.1042 C   0  0  0  0  0  0  0  0  0  0  0  0
   10.0717   -3.5735   17.0520 C   0  0  0  0  0  0  0  0  0  0  0  0
    6.4069   -5.5055   16.4993 F   0  0  0  0  0  0  0  0  0  0  0  0
    6.8493   -8.5023   17.5753 C   0  0  0  0  0  0  0  0  0  0  0  0
   10.7301   -4.5916   18.0690 N   0  0  0  0  0  0  0  0  0  0  0  0
   -0.3532   -9.8223   13.5570 C   0  0  0  0  0  0  0  0  0  0  0  0
    7.1875   -5.0155   15.7129 O   0  0  0  0  0  0  0  0  0  0  0  0
    9.0656   -6.6968   16.4937 C   0  0  0  0  0  0  0  0  0  0  0  0
    6.8032   -8.3324   16.6493 S   0  0  0  0  0  0  0  0  0  0  0  0
   11.2682   -3.6091   17.8590 C   0  0  0  0  0  0  0  0  0  0  0  0
    2.8335   -8.4600   14.9309 C   0  0  0  0  0  0  0  0  0  0  0  0
    7.8705   -3.4721   26.8224 N   0  0  0  0  0  0  0  0  0  0  0  0
    9.2426   -5.2121   16.7660 C   0  0  0  0  0  0  0  0  0  0  0  0
    1.4788   -9.4522   16.4399 F   0  0  0  0  0  0  0  0  0  0  0  0
    9.7396   -4.3706   25.9837 He  0  0  0  0  0  0  0  0  0  0  0  0
    2.4124   -9.0349   16.2113 He  0  0  0  0  0  0  0  0  0  0  0  0
    5.2138  -10.0130   17.2690 He  0  0  0  0  0  0  0  0  0  0  0  0
    2.4625  -10.7073   18.3177 He  0  0  0  0  0  0  0  0  0  0  0  0
   -1.1207  -10.1806   12.8212 He  0  0  0  0  0  0  0  0  0  0  0  0
  1  2  4  0
  1  5  2  0
  1  6  3  0
  1  9  4  0
  1 12  4  0
  1 13  4  0
  1 14  3  0
  1 26  2  0
  2  8  3  0
  2 11  4  0
  2 13  2  0
  2 15  1  0
  2 28  4  0
  3  6  1  0
  3 11  4  0
  3 12  3  0
  3 16  2  0
  3 17  4  0
  3 23  4  0
  3 24  4  0
  3 29  1  0
  4  8  2  0
  4  9  4  0
  4 11  3  0
  4 12  1  0
  4 13  1  0
  4 18  1  0
  4 21  3  0
  4 23  3  0
  4 24  3  0
  4 25  4  0
  5 23  1  0
  5 27  4  0
  6  7  2  0
  6 10  2  0
  6 14  3  0
  6 21  4  0
  6 27  4  0
  8 13  4  0
  8 15  1  0
  8 22  4  0
  8 23  2  0
  8 27  4  0
  9 14  1  0
  9 17  3  0
  9 18  4  0
  9 22  4  0
  9 29  2  0
 10 11  1  0
 10 13  3  0
 10 15  3  0
 10 16  4  0
 10 18  1  0
 10 26  4  0
 11 12  1  0
 11 13  4  0
 11 14  3  0
 11 15  2  0
 11 19  4  0
 11 23  3  0
 11 29  3  0
 12 16  4  0
 12 17  4  0
 12 26  2  0
 12 28  1  0
 14 21  3  0
 14 26  3  0
 14 29  4  0
 15 17  2  0
 15 20  2  0
 15 23  3  0
 15 25  3  0
 16 18  2  0
 16 26  3  0
 16 27  4  0
 17 25  4  0
 17 28  4  0
 18 22  3  0
 18 24  3  0
 18 26  4  0
 18 28  4  0
 18 29  3  0
 19 22  2  0
 19 24  1  0
 20 24  4  0
 20 25  3  0
 25 27  1  0
M  END
$$$$

 Created by Python create_sdf_string function

 34 37  0  0  0  0  0  0  0  0999 V2000
    3.5619  -10.3396   17.9130 C   0  0  0  0  0  0  0  0  0  0  0  0
    9.3636   -5.8725   17.1439 C   0  0  0  0  0  0  0  0  0  0  0  0
    0.0596   -9.3084   16.0417 C   0  0  0  0  0  0  0  0  0  0  0  0
    9.9346   -4.3138   26.2384 N   0  0  0  0  0  0  0  0  0  0  0  0
    5.5255   -7.3947   15.4984 C   0  0  0  0  0  0  0  0  0  0  0  0
    8.8275   -4.3158   27.1254 N   0  0  0  0  0  0  0  0  0  0  0  0
   -0.5648  -10.0723   14.9392 C   0  0  0  0  0  0  0  0  0  0  0  0
   10.1417   -6.0022   18.2279 C   0  0  0  0  0  0  0  0  0  0  0  0
    8.6185   -2.5467   25.6607 C   0  0  0  0  0  0  0  0  0  0  0  0
    3.6772   -9.4893   16.8745 C   0  0  0  0  0  0  0  0  0  0  0  0
   -1.4227  -11.1684   15.1496 C   0  0  0  0  0  0  0  0  0  0  0  0
    3.6142   -8.2530   15.3942 C   0  0  0  0  0  0  0  0  0  0  0  0
   -1.9469  -11.2642   12.8484 C   0  0  0  0  0  0  0  0  0  0  0  0
    9.8136   -3.2356   25.3195 N   0  0  0  0  0  0  0  0  0  0  0  0
    1.3281  -10.3995   17.6918 C   0  0  0  0  0  0  0  0  0  0  0  0
    7.8678   -7.9406   16.4059 C   0  0  0  0  0  0  0  0  0  0  0  0
   -2.1112  -11.7172   14.1213 C   0  0  0  0  0  0  0  0  0  0  0  0
    2.5819   -9.1369   16.1914 C   0  0  0  0  0  0  0  0  0  0  0  0
   10.1706   -3.6337   16.9681 C   0  0  0  0  0  0  0  0  0  0  0  0
    6.9363   -6.4303   15.8032 C   0  0  0  0  0  0  0  0  0  0  0  0
    5.3644   -9.4309   16.7899 O   0  0  0  0  0  0  0  0  0  0  0  0
    6.8442   -8.5274   17.5022 C   0  0  0  0  0  0  0  0  0  0  0  0
   10.9521   -4.9461   18.6351 N   0  0  0  0  0  0  0  0  0  0  0  0
   -0.3599   -9.6525   13.6428 C   0  0  0  0  0  0  0  0  0  0  0  0
    6.9593   -5.5133   15.3911 O   0  0  0  0  0  0  0  0  0  0  0  0
    8.5698   -7.1239   16.6544 C   0  0  0  0  0  0  0  0  0  0  0  0
    6.3002   -8.4151   16.5441 C   0  0  0  0  0  0  0  0  0  0  0  0
   10.9373   -3.8072   18.0235 C   0  0  0  0  0  0  0  0  0  0  0  0
    3.0096   -8.0120   14.8691 C   0  0  0  0  0  0  0  0  0  0  0  0
    7.9646   -3.2580   26.7165 N   0  0  0  0  0  0  0  0  0  0  0  0
    9.3223   -4.6454   16.5019 C   0  0  0  0  0  0  0  0  0  0  0  0
    2.3625  -10.7984   18.3634 C   0  0  0  0  0  0  0  0  0  0  0  0
    1.3661   -9.6341   16.6110 N   0  0  0  0  0  0  0  0  0  0  0  0
   -1.0658  -10.2301   12.6178 C   0  0  0  0  0  0  0  0  0  0  0  0
  1 10  4  0
  1 32  4  0
  2  8  4  0
  2 26  1  0
  2 31  4  0
  3  7  1  0
  3 33  1  0
  4  6  4  0
  4 14  4  0
  5 20  1  0
  5 27  1  0
  6 30  4  0
  7 11  4  0
  7 24  4  0
  8 23  4  0
  9 14  4  0
  9 30  4  0
 10 18  4  0
 10 21  1  0
 11 17  4  0
 12 18  1  0
 12 29  4  0
 13 17  4  0
 13 34  4  0
 15 32  4  0
 15 33  4  0
 16 22  1  0
 16 26  1  0
 18 33  4  0
 19 28  4  0
 19 31  4  0
 20 25  2  0
 20 26  1  0
 21 27  1  0
 22 27  1  0
 23 28  4  0
 24 34  4  0
M  END
$$$$

 Created by Python create_sdf_string function

 34 89  0  0  0  0  0  0  0  0999 V2000
    3.2818  -10.1336   18.0251 C   0  0  0  0  0  0  0  0  0  0  0  0
    9.4854   -5.7086   17.1390 P   0  0  0  0  0  0  0  0  0  0  0  0
    9.3268   -4.4881   26.0415 N   0  0  0  0  0  0  0  0  0  0  0  0
    4.4768   -8.2084   15.5376 O   0  0  0  0  0  0  0  0  0  0  0  0
    8.9685   -4.5274   27.1974 N   0  0  0  0  0  0  0  0  0  0  0  0
   10.3127   -5.7798   18.4469 C   0  0  0  0  0  0  0  0  0  0  0  0
    8.5857   -2.7649   25.5327 C   0  0  0  0  0  0  0  0  0  0  0  0
    3.4798  -11.0676   16.9650 Cl  0  0  0  0  0  0  0  0  0  0  0  0
   -1.1366  -11.0101   15.7465 C   0  0  0  0  0  0  0  0  0  0  0  0
    4.2704   -8.2811   16.3657 C   0  0  0  0  0  0  0  0  0  0  0  0
   -2.0592  -11.0751   13.0271 C   0  0  0  0  0  0  0  0  0  0  0  0
    9.5055   -3.1592   25.1183 N   0  0  0  0  0  0  0  0  0  0  0  0
    7.5932   -8.1944   16.6334 C   0  0  0  0  0  0  0  0  0  0  0  0
   -2.1181  -12.0201   14.4457 C   0  0  0  0  0  0  0  0  0  0  0  0
    2.5547   -9.0457   16.3178 C   0  0  0  0  0  0  0  0  0  0  0  0
   10.5669   -3.4262   17.2135 C   0  0  0  0  0  0  0  0  0  0  0  0
    5.6206   -9.4219   16.7843 P   0  0  0  0  0  0  0  0  0  0  0  0
    6.9895   -8.4842   17.7673 C   0  0  0  0  0  0  0  0  0  0  0  0
   11.1400   -4.8440   18.4150 P   0  0  0  0  0  0  0  0  0  0  0  0
   -0.4532   -9.7112   13.3348 C   0  0  0  0  0  0  0  0  0  0  0  0
    6.7921   -5.6842   15.5278 O   0  0  0  0  0  0  0  0  0  0  0  0
    8.3013   -7.0926   17.3509 C   0  0  0  0  0  0  0  0  0  0  0  0
    5.5859   -9.4312   15.9569 C   0  0  0  0  0  0  0  0  0  0  0  0
   10.5129   -3.4788   18.3177 C   0  0  0  0  0  0  0  0  0  0  0  0
    7.9057   -3.3995   26.8067 N   0  0  0  0  0  0  0  0  0  0  0  0
    8.9789   -4.7296   16.2663 C   0  0  0  0  0  0  0  0  0  0  0  0
    2.4078  -11.0018   18.6349 C   0  0  0  0  0  0  0  0  0  0  0  0
    1.2465   -9.5569   16.6173 N   0  0  0  0  0  0  0  0  0  0  0  0
   -1.4750  -10.7372   12.7578 C   0  0  0  0  0  0  0  0  0  0  0  0
    0.3131   -9.6217   15.9048 He  0  0  0  0  0  0  0  0  0  0  0  0
   -0.7512   -9.9249   14.9857 He  0  0  0  0  0  0  0  0  0  0  0  0
    1.1922  -10.3813   17.7045 He  0  0  0  0  0  0  0  0  0  0  0  0
    7.4629   -6.8127   15.3707 He  0  0  0  0  0  0  0  0  0  0  0  0
    2.8428   -7.7234   14.9306 He  0  0  0  0  0  0  0  0  0  0  0  0
  1  4  4  0
  1  8  3  0
  1 13  4  0
  1 26  4  0
  1 27  4  0
  2  6  4  0
  2  7  2  0
  2 10  1  0
  2 11  3  0
  2 21  2  0
  2 22  1  0
  2 26  4  0
  3  5  4  0
  3  8  2  0
  3 10  2  0
  3 12  4  0
  3 18  4  0
  3 24  1  0
  3 25  3  0
  4  5  4  0
  4 11  2  0
  4 13  3  0
  4 14  3  0
  4 22  2  0
  4 25  4  0
  4 28  3  0
  5 10  2  0
  5 17  1  0
  5 19  4  0
  5 25  4  0
  6 16  1  0
  6 18  3  0
  6 19  4  0
  6 23  4  0
  6 28  3  0
  7  8  1  0
  7 12  4  0
  7 18  2  0
  7 23  3  0
  7 25  4  0
  8 10  1  0
  8 15  4  0
  8 17  3  0
  8 18  2  0
  8 20  1  0
  8 22  3  0
  8 25  1  0
  8 26  3  0
  8 27  4  0
  8 28  4  0
  9 10  4  0
  9 11  2  0
  9 13  4  0
  9 14  4  0
  9 23  2  0
 10 11  3  0
 10 19  4  0
 11 13  3  0
 11 17  4  0
 11 29  4  0
 12 15  1  0
 12 23  4  0
 13 14  4  0
 13 15  4  0
 13 16  3  0
 13 18  1  0
 13 21  1  0
 13 23  2  0
 13 25  4  0
 13 29  2  0
 15 17  2  0
 15 21  3  0
 15 28  4  0
 16 21  4  0
 16 24  4  0
 16 26  4  0
 16 28  3  0
 17 21  1  0
 17 22  2  0
 17 23  1  0
 17 29  3  0
 18 23  1  0
 19 25  3  0
 19 26  4  0
 20 25  2  0
 20 29  4  0
 21 23  3  0
 22 23  1  0
 24 25  3  0
M  END
$$$$

 Created by Python create_sdf_string function

 34 37  0  0  0  0  0  0  0  0999 V2000
    3.5066  -10.5643   18.1272 C   0  0  0  0  0  0  0  0  0  0  0  0
    9.3924   -5.7789   17.3551 C   0  0  0  0  0  0  0  0  0  0  0  0
    0.3130   -9.2729   15.8852 C   0  0  0  0  0  0  0  0  0  0  0  0
    9.7713   -4.4113   26.0506 N   0  0  0  0  0  0  0  0  0  0  0  0
    4.7461   -7.8343   15.7254 C   0  0  0  0  0  0  0  0  0  0  0  0
    8.8195   -4.4753   27.0449 N   0  0  0  0  0  0  0  0  0  0  0  0
   -0.4829  -10.0928   14.9347 C   0  0  0  0  0  0  0  0  0  0  0  0
   10.2302   -5.8203   18.4207 C   0  0  0  0  0  0  0  0  0  0  0  0
    8.4227   -2.6216   25.6751 C   0  0  0  0  0  0  0  0  0  0  0  0
    3.4642   -9.7591   17.0456 C   0  0  0  0  0  0  0  0  0  0  0  0
   -1.3053  -11.1010   15.4075 C   0  0  0  0  0  0  0  0  0  0  0  0
    3.8613   -8.4178   15.9445 C   0  0  0  0  0  0  0  0  0  0  0  0
   -2.1159  -11.4552   13.2342 C   0  0  0  0  0  0  0  0  0  0  0  0
    9.5466   -3.3230   25.1812 N   0  0  0  0  0  0  0  0  0  0  0  0
    1.1881  -10.6285   17.7295 N   0  0  0  0  0  0  0  0  0  0  0  0
    7.2869   -8.0136   16.4428 C   0  0  0  0  0  0  0  0  0  0  0  0
   -2.1400  -11.7555   14.5568 C   0  0  0  0  0  0  0  0  0  0  0  0
    2.4696   -9.3219   16.5000 C   0  0  0  0  0  0  0  0  0  0  0  0
   10.1750   -3.5223   16.9486 C   0  0  0  0  0  0  0  0  0  0  0  0
    7.3522   -6.8862   16.1888 C   0  0  0  0  0  0  0  0  0  0  0  0
    5.5120   -9.5362   16.7511 C   0  0  0  0  0  0  0  0  0  0  0  0
    7.0573   -8.7740   17.4836 C   0  0  0  0  0  0  0  0  0  0  0  0
   10.9505   -4.6738   18.8226 C   0  0  0  0  0  0  0  0  0  0  0  0
   -0.4991   -9.7624   13.5879 C   0  0  0  0  0  0  0  0  0  0  0  0
    6.8530   -5.9078   15.4324 O   0  0  0  0  0  0  0  0  0  0  0  0
    8.4366   -6.9394   17.0548 N   0  0  0  0  0  0  0  0  0  0  0  0
    5.7157   -8.8665   16.4128 C   0  0  0  0  0  0  0  0  0  0  0  0
   10.9014   -3.5582   18.0399 C   0  0  0  0  0  0  0  0  0  0  0  0
    2.9137   -7.8346   15.0912 O   0  0  0  0  0  0  0  0  0  0  0  0
    7.9323   -3.3672   26.8131 N   0  0  0  0  0  0  0  0  0  0  0  0
    9.3268   -4.6067   16.5800 C   0  0  0  0  0  0  0  0  0  0  0  0
    2.2138  -10.9525   18.5134 C   0  0  0  0  0  0  0  0  0  0  0  0
    1.3111   -9.7392   16.6731 N   0  0  0  0  0  0  0  0  0  0  0  0
   -1.3507  -10.4433   12.7443 C   0  0  0  0  0  0  0  0  0  0  0  0
  1 10  4  0
  1 32  4  0
  2  8  4  0
  2 26  1  0
  2 31  4  0
  3  7  1  0
  3 33  1  0
  4  6  4  0
  4 14  4  0
  5 12  1  0
  5 27  1  0
  6 30  4  0
  7 11  4  0
  7 24  4  0
  8 23  4  0
  9 14  4  0
  9 30  4  0
 10 12  1  0
 10 18  4  0
 11 17  4  0
 12 29  1  0
 13 17  4  0
 13 34  4  0
 15 32  4  0
 15 33  4  0
 16 20  1  0
 16 22  1  0
 16 26  1  0
 18 33  4  0
 19 28  4  0
 19 31  4  0
 20 25  2  0
 20 26  1  0
 21 27  1  0
 22 27  1  0
 23 28  4  0
 24 34  4  0
M  END
$$$$

 Created by Python create_sdf_string function

 34 82  0  0  0  0  0  0  0  0999 V2000
    3.7420  -10.2383   18.2176 C   0  0  0  0  0  0  0  0  0  0  0  0
    9.4140   -5.6459   17.4682 C   0  0  0  0  0  0  0  0  0  0  0  0
    0.5421   -9.5091   16.0327 C   0  0  0  0  0  0  0  0  0  0  0  0
    9.9125   -4.4901   25.8723 N   0  0  0  0  0  0  0  0  0  0  0  0
    8.6387   -4.5888   27.0293 N   0  0  0  0  0  0  0  0  0  0  0  0
    0.0106  -10.0429   14.5077 C   0  0  0  0  0  0  0  0  0  0  0  0
   10.2921   -5.9337   18.4235 C   0  0  0  0  0  0  0  0  0  0  0  0
    8.0587   -2.5272   26.0469 C   0  0  0  0  0  0  0  0  0  0  0  0
    4.8149   -9.8409   17.1532 F   0  0  0  0  0  0  0  0  0  0  0  0
   -1.1516  -11.0034   15.2775 C   0  0  0  0  0  0  0  0  0  0  0  0
    3.7402   -8.2076   14.6695 C   0  0  0  0  0  0  0  0  0  0  0  0
   -2.1306  -11.6124   13.4264 C   0  0  0  0  0  0  0  0  0  0  0  0
    9.4967   -3.2993   24.9300 N   0  0  0  0  0  0  0  0  0  0  0  0
    0.8584  -10.4826   17.5721 N   0  0  0  0  0  0  0  0  0  0  0  0
   -2.2617  -11.7642   14.4920 C   0  0  0  0  0  0  0  0  0  0  0  0
    2.4639   -9.4712   16.2926 C   0  0  0  0  0  0  0  0  0  0  0  0
    9.8397   -3.7733   17.0287 C   0  0  0  0  0  0  0  0  0  0  0  0
    8.7529   -8.0438   15.9134 C   0  0  0  0  0  0  0  0  0  0  0  0
    6.6451   -8.9399   17.2981 C   0  0  0  0  0  0  0  0  0  0  0  0
   11.3189   -4.5334   18.7740 C   0  0  0  0  0  0  0  0  0  0  0  0
   -0.5191   -9.5280   13.5490 C   0  0  0  0  0  0  0  0  0  0  0  0
    6.8234   -5.6740   15.8328 O   0  0  0  0  0  0  0  0  0  0  0  0
    8.4845   -6.4771   17.2178 N   0  0  0  0  0  0  0  0  0  0  0  0
    5.8714   -7.2196   15.9097 C   0  0  0  0  0  0  0  0  0  0  0  0
   10.7977   -3.2982   17.5582 C   0  0  0  0  0  0  0  0  0  0  0  0
    3.2479   -7.9650   14.9994 O   0  0  0  0  0  0  0  0  0  0  0  0
    8.0555   -3.4066   26.8501 N   0  0  0  0  0  0  0  0  0  0  0  0
    9.3873   -4.4760   16.5247 F   0  0  0  0  0  0  0  0  0  0  0  0
    2.4993  -10.7441   18.7218 C   0  0  0  0  0  0  0  0  0  0  0  0
    1.6366   -9.5423   16.3270 O   0  0  0  0  0  0  0  0  0  0  0  0
   -1.3303  -10.6962   12.8440 N   0  0  0  0  0  0  0  0  0  0  0  0
    5.0633   -8.4773   16.0926 He  0  0  0  0  0  0  0  0  0  0  0  0
    6.5730   -7.7768   16.8490 He  0  0  0  0  0  0  0  0  0  0  0  0
    5.8157   -9.8244   16.7234 He  0  0  0  0  0  0  0  0  0  0  0  0
  1 14  2  0
  1 16  3  0
  1 25  4  0
  1 26  2  0
  1 29  4  0
  2  7  4  0
  2 14  1  0
  2 18  3  0
  2 22  2  0
  2 23  1  0
  2 24  4  0
  2 28  4  0
  2 29  3  0
  3  6  1  0
  3 11  4  0
  3 14  4  0
  3 30  1  0
  4  5  4  0
  4 13  4  0
  4 18  3  0
  4 21  1  0
  5  9  3  0
  5 10  2  0
  5 17  3  0
  5 26  1  0
  6  8  3  0
  6 10  4  0
  6 11  2  0
  6 17  4  0
  6 22  3  0
  6 24  2  0
  6 29  1  0
  7 20  4  0
  7 24  2  0
  7 27  3  0
  7 30  1  0
  8 13  4  0
  8 18  4  0
  8 27  4  0
  9 11  3  0
  9 12  4  0
  9 24  2  0
  9 25  4  0
  9 26  3  0
 10 11  1  0
 10 15  4  0
 10 19  2  0
 10 25  2  0
 10 27  1  0
 11 15  3  0
 11 19  2  0
 11 20  2  0
 11 25  2  0
 11 30  1  0
 12 15  4  0
 12 23  4  0
 12 31  4  0
 13 31  1  0
 14 18  3  0
 14 24  1  0
 14 28  3  0
 14 29  4  0
 15 16  3  0
 15 21  4  0
 15 22  1  0
 16 30  4  0
 17 28  4  0
 18 23  1  0
 18 26  1  0
 18 28  3  0
 20 25  4  0
 20 27  1  0
 22 26  2  0
 22 31  3  0
 23 27  2  0
 23 30  2  0
 24 25  2  0
 24 27  1  0
 24 28  1  0
 24 30  4  0
 25 26  2  0
 28 31  4  0
M  END
$$$$

 Created by Python create_sdf_string function

 34 39  0  0  0  0  0  0  0  0999 V2000
    3.5178  -10.3454   17.9260 C   0  0  0  0  0  0  0  0  0  0  0  0
    9.4280   -5.7156   17.4370 C   0  0  0  0  0  0  0  0  0  0  0  0
    0.7712   -9.3108   15.5164 C   0  0  0  0  0  0  0  0  0  0  0  0
    9.7990   -4.4040   25.9240 N   0  0  0  0  0  0  0  0  0  0  0  0
    5.1574   -8.1686   15.9690 N   0  0  0  0  0  0  0  0  0  0  0  0
    8.8533   -4.5667   26.9388 N   0  0  0  0  0  0  0  0  0  0  0  0
   -0.2417  -10.1046   14.8783 C   0  0  0  0  0  0  0  0  0  0  0  0
   10.3081   -5.6901   18.4631 C   0  0  0  0  0  0  0  0  0  0  0  0
    8.3272   -2.5946   25.8407 C   0  0  0  0  0  0  0  0  0  0  0  0
    4.5512   -9.9227   17.4961 N   0  0  0  0  0  0  0  0  0  0  0  0
   -1.1501  -11.1000   15.4334 C   0  0  0  0  0  0  0  0  0  0  0  0
    3.7816   -8.3947   15.5751 C   0  0  0  0  0  0  0  0  0  0  0  0
   -2.0842  -11.4088   13.2971 C   0  0  0  0  0  0  0  0  0  0  0  0
    9.4752   -3.2125   25.1907 N   0  0  0  0  0  0  0  0  0  0  0  0
    1.2385  -10.5074   17.6831 N   0  0  0  0  0  0  0  0  0  0  0  0
    7.2281   -7.7121   16.7295 C   0  0  0  0  0  0  0  0  0  0  0  0
   -2.0449  -11.7518   14.6251 C   0  0  0  0  0  0  0  0  0  0  0  0
    2.8707   -9.4366   16.4689 C   0  0  0  0  0  0  0  0  0  0  0  0
   10.1198   -3.6006   16.7674 C   0  0  0  0  0  0  0  0  0  0  0  0
    8.4754   -7.7888   16.2095 C   0  0  0  0  0  0  0  0  0  0  0  0
    5.4780   -9.4179   16.9985 C   0  0  0  0  0  0  0  0  0  0  0  0
    6.7756   -8.8952   17.4094 C   0  0  0  0  0  0  0  0  0  0  0  0
   11.0507   -4.5846   18.6748 C   0  0  0  0  0  0  0  0  0  0  0  0
   -0.3866   -9.8607   13.5537 C   0  0  0  0  0  0  0  0  0  0  0  0
    6.5754   -5.9079   15.6365 O   0  0  0  0  0  0  0  0  0  0  0  0
    8.5959   -6.9210   17.3194 C   0  0  0  0  0  0  0  0  0  0  0  0
    6.1736   -7.1783   16.0273 C   0  0  0  0  0  0  0  0  0  0  0  0
   10.9643   -3.5270   17.8670 C   0  0  0  0  0  0  0  0  0  0  0  0
    3.3182   -7.8702   14.8028 O   0  0  0  0  0  0  0  0  0  0  0  0
    7.9398   -3.4547   26.9078 N   0  0  0  0  0  0  0  0  0  0  0  0
    9.2971   -4.6837   16.5679 C   0  0  0  0  0  0  0  0  0  0  0  0
    2.3536  -10.7667   18.3773 C   0  0  0  0  0  0  0  0  0  0  0  0
    1.6451   -9.6931   16.4287 N   0  0  0  0  0  0  0  0  0  0  0  0
   -1.2732  -10.4476   12.8062 C   0  0  0  0  0  0  0  0  0  0  0  0
  1 10  4  0
  1 18  4  0
  1 32  4  0
  2  8  4  0
  2 26  1  0
  2 31  4  0
  3  7  1  0
  3 33  1  0
  4  6  4  0
  4 14  4  0
  5 12  1  0
  5 21  1  0
  5 27  1  0
  6 30  4  0
  7 11  4  0
  7 24  4  0
  8 23  4  0
  9 14  4  0
  9 30  4  0
 10 21  1  0
 11 17  4  0
 12 18  4  0
 12 29  2  0
 13 17  4  0
 13 34  4  0
 15 32  4  0
 15 33  4  0
 16 20  1  0
 16 22  1  0
 16 26  1  0
 16 27  1  0
 18 33  4  0
 19 28  4  0
 19 31  4  0
 20 26  1  0
 21 22  1  0
 23 28  4  0
 24 34  4  0
 25 27  2  0
M  END
$$$$

 Created by Python create_sdf_string function

 34 81  0  0  0  0  0  0  0  0999 V2000
    3.1350  -10.7705   18.0773 C   0  0  0  0  0  0  0  0  0  0  0  0
    9.3575   -5.6356   17.3953 C   0  0  0  0  0  0  0  0  0  0  0  0
    0.4861   -9.2788   15.4516 C   0  0  0  0  0  0  0  0  0  0  0  0
    0.0262  -10.0937   14.6718 C   0  0  0  0  0  0  0  0  0  0  0  0
   10.3236   -5.8667   18.5217 C   0  0  0  0  0  0  0  0  0  0  0  0
    8.1881   -2.3012   25.9023 C   0  0  0  0  0  0  0  0  0  0  0  0
    3.9036   -9.6248   17.3224 N   0  0  0  0  0  0  0  0  0  0  0  0
   -0.9491  -11.1878   15.4440 C   0  0  0  0  0  0  0  0  0  0  0  0
    4.3898   -8.7818   15.3663 C   0  0  0  0  0  0  0  0  0  0  0  0
   -2.0276  -11.6612   13.2574 C   0  0  0  0  0  0  0  0  0  0  0  0
    9.1135   -3.3430   25.7038 N   0  0  0  0  0  0  0  0  0  0  0  0
    6.8380   -8.3963   15.7167 C   0  0  0  0  0  0  0  0  0  0  0  0
   -1.8774  -11.5099   14.7191 C   0  0  0  0  0  0  0  0  0  0  0  0
    3.0789   -9.3990   16.4152 C   0  0  0  0  0  0  0  0  0  0  0  0
   10.3049   -3.6781   16.9403 C   0  0  0  0  0  0  0  0  0  0  0  0
    8.2411   -7.5677   16.0754 N   0  0  0  0  0  0  0  0  0  0  0  0
    5.8440   -8.4548   16.4886 C   0  0  0  0  0  0  0  0  0  0  0  0
    6.4256   -9.0333   17.5678 C   0  0  0  0  0  0  0  0  0  0  0  0
   10.8685   -4.4909   18.6517 C   0  0  0  0  0  0  0  0  0  0  0  0
   -0.4134   -9.6310   13.5755 C   0  0  0  0  0  0  0  0  0  0  0  0
    6.6612   -5.9421   15.8773 O   0  0  0  0  0  0  0  0  0  0  0  0
    8.9128   -6.9504   17.1660 C   0  0  0  0  0  0  0  0  0  0  0  0
    5.2006   -7.5902   16.0956 C   0  0  0  0  0  0  0  0  0  0  0  0
   11.3069   -3.2564   17.7352 C   0  0  0  0  0  0  0  0  0  0  0  0
    3.4648   -8.1706   14.9233 O   0  0  0  0  0  0  0  0  0  0  0  0
    7.8830   -3.5132   27.2551 N   0  0  0  0  0  0  0  0  0  0  0  0
    9.4402   -5.0045   16.4778 C   0  0  0  0  0  0  0  0  0  0  0  0
    2.2992  -10.9617   18.4038 C   0  0  0  0  0  0  0  0  0  0  0  0
    1.4480   -9.3336   16.6139 N   0  0  0  0  0  0  0  0  0  0  0  0
   -1.2752  -10.1358   12.7292 C   0  0  0  0  0  0  0  0  0  0  0  0
   10.0391   -4.3161   26.1982 He  0  0  0  0  0  0  0  0  0  0  0  0
    5.1171   -9.1415   16.2899 He  0  0  0  0  0  0  0  0  0  0  0  0
    8.5442   -4.2722   26.8311 He  0  0  0  0  0  0  0  0  0  0  0  0
    1.5777  -10.3733   18.0887 He  0  0  0  0  0  0  0  0  0  0  0  0
  1 11  3  0
  1 14  4  0
  1 16  4  0
  1 22  3  0
  1 28  4  0
  2  5  4  0
  2  7  3  0
  2 10  3  0
  2 12  4  0
  2 22  1  0
  2 26  4  0
  3  7  4  0
  3 13  2  0
  3 19  3  0
  3 23  1  0
  3 29  1  0
  4  7  4  0
  4  8  4  0
  4 20  4  0
  5 13  3  0
  5 16  3  0
  5 19  4  0
  6  7  2  0
  6 11  4  0
  6 16  2  0
  6 23  4  0
  6 26  4  0
  7  9  2  0
  7 12  4  0
  7 16  3  0
  7 17  3  0
  7 18  3  0
  7 20  4  0
  7 22  4  0
  7 23  4  0
  7 28  2  0
  8  9  4  0
  8 13  4  0
  8 18  2  0
  8 22  4  0
  9 10  2  0
  9 13  1  0
  9 16  4  0
  9 25  4  0
  9 28  1  0
 10 17  3  0
 10 20  1  0
 11 26  2  0
 12 14  1  0
 12 15  4  0
 12 18  2  0
 12 22  1  0
 12 23  1  0
 12 25  3  0
 12 28  3  0
 12 29  4  0
 13 16  4  0
 14 16  3  0
 14 29  4  0
 15 24  4  0
 15 25  4  0
 15 27  1  0
 16 25  3  0
 17 21  2  0
 17 26  3  0
 17 27  3  0
 17 30  3  0
 18 19  3  0
 18 30  3  0
 19 24  4  0
 20 30  4  0
 22 25  1  0
 22 27  2  0
 22 29  3  0
 23 25  3  0
 23 27  4  0
 23 29  2  0
 25 28  3  0
 25 30  4  0
 27 28  4  0
 29 30  1  0
M  END
$$$$

 Created by Python create_sdf_string function

 34 37  0  0  0  0  0  0  0  0999 V2000
    3.3758  -10.5049   18.1164 C   0  0  0  0  0  0  0  0  0  0  0  0
    9.5712   -5.7835   17.4370 C   0  0  0  0  0  0  0  0  0  0  0  0
    0.6922   -9.1820   15.6740 C   0  0  0  0  0  0  0  0  0  0  0  0
    9.7444   -4.2774   26.1783 N   0  0  0  0  0  0  0  0  0  0  0  0
    5.0254   -8.7427   16.1779 N   0  0  0  0  0  0  0  0  0  0  0  0
    8.7175   -4.4913   27.1178 N   0  0  0  0  0  0  0  0  0  0  0  0
   -0.2125   -9.9909   14.8401 C   0  0  0  0  0  0  0  0  0  0  0  0
   10.2843   -5.6553   18.5525 C   0  0  0  0  0  0  0  0  0  0  0  0
    8.2048   -2.4906   26.0548 C   0  0  0  0  0  0  0  0  0  0  0  0
    4.0669  -10.1293   17.7723 N   0  0  0  0  0  0  0  0  0  0  0  0
   -0.9664  -11.0922   15.3636 C   0  0  0  0  0  0  0  0  0  0  0  0
    3.7067   -8.8597   15.8626 C   0  0  0  0  0  0  0  0  0  0  0  0
   -2.0372  -11.3520   13.3062 C   0  0  0  0  0  0  0  0  0  0  0  0
    9.3811   -3.0449   25.4746 N   0  0  0  0  0  0  0  0  0  0  0  0
    1.1515  -10.4090   17.7377 N   0  0  0  0  0  0  0  0  0  0  0  0
    6.8183   -7.4442   15.9274 C   0  0  0  0  0  0  0  0  0  0  0  0
   -1.8634  -11.7293   14.5940 C   0  0  0  0  0  0  0  0  0  0  0  0
    2.8821   -9.5366   16.6791 C   0  0  0  0  0  0  0  0  0  0  0  0
   10.3083   -3.6537   16.7179 C   0  0  0  0  0  0  0  0  0  0  0  0
    8.0302   -7.7094   16.5076 N   0  0  0  0  0  0  0  0  0  0  0  0
    6.0149   -8.7368   16.5268 C   0  0  0  0  0  0  0  0  0  0  0  0
    6.7723   -8.8268   17.4761 C   0  0  0  0  0  0  0  0  0  0  0  0
   11.0158   -4.5119   18.7561 C   0  0  0  0  0  0  0  0  0  0  0  0
   -0.3678   -9.6660   13.5194 C   0  0  0  0  0  0  0  0  0  0  0  0
    6.7017   -5.7914   15.7083 O   0  0  0  0  0  0  0  0  0  0  0  0
    8.8030   -7.1690   17.2874 C   0  0  0  0  0  0  0  0  0  0  0  0
    5.7661   -7.2919   15.5373 C   0  0  0  0  0  0  0  0  0  0  0  0
   11.0338   -3.5199   17.8630 C   0  0  0  0  0  0  0  0  0  0  0  0
    3.3392   -8.1748   14.8835 O   0  0  0  0  0  0  0  0  0  0  0  0
    7.7844   -3.4267   27.0989 N   0  0  0  0  0  0  0  0  0  0  0  0
    9.5255   -4.7305   16.4869 C   0  0  0  0  0  0  0  0  0  0  0  0
    2.1497  -10.8559   18.5438 C   0  0  0  0  0  0  0  0  0  0  0  0
    1.5433   -9.7084   16.6461 N   0  0  0  0  0  0  0  0  0  0  0  0
   -1.3077  -10.3614   12.7305 C   0  0  0  0  0  0  0  0  0  0  0  0
  1 10  4  0
  1 32  4  0
  2  8  4  0
  2 26  1  0
  2 31  4  0
  3  7  1  0
  3 33  1  0
  4  6  4  0
  4 14  4  0
  5 12  1  0
  5 21  1  0
  5 27  1  0
  6 30  4  0
  7 11  4  0
  7 24  4  0
  8 23  4  0
  9 14  4  0
  9 30  4  0
 10 18  4  0
 11 17  4  0
 12 18  4  0
 12 29  2  0
 13 17  4  0
 13 34  4  0
 15 32  4  0
 15 33  4  0
 16 20  1  0
 16 25  2  0
 16 27  1  0
 18 33  4  0
 19 28  4  0
 19 31  4  0
 20 22  1  0
 20 26  1  0
 21 22  1  0
 23 28  4  0
 24 34  4  0
M  END
$$$$

 Created by Python create_sdf_string function

 34 48  0  0  0  0  0  0  0  0999 V2000
    3.1403  -10.7569   18.1926 C   0  0  0  0  0  0  0  0  0  0  0  0
    9.8222   -5.8114   17.7501 C   0  0  0  0  0  0  0  0  0  0  0  0
    1.0253   -8.9651   15.8158 C   0  0  0  0  0  0  0  0  0  0  0  0
    9.7257   -3.7847   26.2411 N   0  0  0  0  0  0  0  0  0  0  0  0
    8.9624   -4.3344   27.0443 N   0  0  0  0  0  0  0  0  0  0  0  0
   -0.6978  -10.1643   14.7088 C   0  0  0  0  0  0  0  0  0  0  0  0
   10.1652   -5.8656   18.6234 C   0  0  0  0  0  0  0  0  0  0  0  0
    4.8427  -10.7699   18.1870 N   0  0  0  0  0  0  0  0  0  0  0  0
   -2.0475  -11.1325   13.3000 C   0  0  0  0  0  0  0  0  0  0  0  0
    9.5848   -2.8393   25.6283 N   0  0  0  0  0  0  0  0  0  0  0  0
    1.0750  -10.3720   17.5889 N   0  0  0  0  0  0  0  0  0  0  0  0
    7.3952   -7.5179   16.2467 N   0  0  0  0  0  0  0  0  0  0  0  0
   -1.8614  -11.7474   14.5745 C   0  0  0  0  0  0  0  0  0  0  0  0
    6.3569   -8.1724   17.1167 C   0  0  0  0  0  0  0  0  0  0  0  0
   11.4876   -4.2771   18.8292 C   0  0  0  0  0  0  0  0  0  0  0  0
    6.3982   -5.3274   15.7912 Cl  0  0  0  0  0  0  0  0  0  0  0  0
    8.8219   -7.3602   17.2307 C   0  0  0  0  0  0  0  0  0  0  0  0
    6.2050   -7.5721   14.5636 Cl  0  0  0  0  0  0  0  0  0  0  0  0
   10.5322   -3.4070   17.8137 C   0  0  0  0  0  0  0  0  0  0  0  0
    3.2281   -8.0500   14.9900 O   0  0  0  0  0  0  0  0  0  0  0  0
    9.7974   -4.5298   15.8730 C   0  0  0  0  0  0  0  0  0  0  0  0
    2.2315  -10.8315   18.4300 C   0  0  0  0  0  0  0  0  0  0  0  0
    1.5451   -9.4698   16.5255 N   0  0  0  0  0  0  0  0  0  0  0  0
   -1.2736  -10.0492   12.8511 C   0  0  0  0  0  0  0  0  0  0  0  0
    5.3217   -9.4000   16.2534 He  0  0  0  0  0  0  0  0  0  0  0  0
    8.2735   -2.5705   25.3208 He  0  0  0  0  0  0  0  0  0  0  0  0
   -1.0478  -11.3277   15.3527 He  0  0  0  0  0  0  0  0  0  0  0  0
    3.2547   -8.3793   14.8177 He  0  0  0  0  0  0  0  0  0  0  0  0
    2.4200   -9.3608   16.8278 He  0  0  0  0  0  0  0  0  0  0  0  0
   10.7063   -3.8249   16.5518 He  0  0  0  0  0  0  0  0  0  0  0  0
    7.4796   -8.3786   15.9800 He  0  0  0  0  0  0  0  0  0  0  0  0
    6.7738   -8.5403   17.7517 He  0  0  0  0  0  0  0  0  0  0  0  0
   -0.6077  -10.0372   13.4742 He  0  0  0  0  0  0  0  0  0  0  0  0
    8.0575   -2.8316   27.1385 He  0  0  0  0  0  0  0  0  0  0  0  0
  1 14  2  0
  1 15  4  0
  1 22  4  0
  2  6  2  0
  2  7  4  0
  2 10  1  0
  2 11  1  0
  2 12  3  0
  2 17  1  0
  2 21  4  0
  3  6  1  0
  3 15  2  0
  3 23  1  0
  4  5  2  0
  4 10  4  0
  4 11  4  0
  4 23  4  0
  5  7  1  0
  5 13  3  0
  5 23  1  0
  7 14  3  0
  7 15  4  0
  8 11  4  0
  8 17  3  0
  8 22  2  0
  9 10  2  0
  9 19  1  0
  9 21  4  0
  9 22  3  0
  9 23  1  0
 10 12  2  0
 10 14  1  0
 10 20  1  0
 10 23  1  0
 11 22  4  0
 11 23  4  0
 12 18  1  0
 12 23  1  0
 13 16  3  0
 14 20  3  0
 14 23  2  0
 15 18  4  0
 15 19  4  0
 16 24  4  0
 17 18  4  0
 18 23  1  0
 18 24  3  0
 19 21  1  0
M  END
$$$$

 Created by Python create_sdf_string function

 34 38  0  0  0  0  0  0  0  0999 V2000
    3.2710  -10.3036   17.9325 C   0  0  0  0  0  0  0  0  0  0  0  0
    9.6030   -5.8174   17.3655 C   0  0  0  0  0  0  0  0  0  0  0  0
    0.6833   -9.1849   15.6924 C   0  0  0  0  0  0  0  0  0  0  0  0
    9.9441   -4.0028   26.2029 N   0  0  0  0  0  0  0  0  0  0  0  0
    4.9822   -8.5699   16.1528 C   0  0  0  0  0  0  0  0  0  0  0  0
    8.9158   -4.1510   27.1419 N   0  0  0  0  0  0  0  0  0  0  0  0
   -0.2235  -10.0245   14.8866 C   0  0  0  0  0  0  0  0  0  0  0  0
   10.1788   -5.5987   18.5547 C   0  0  0  0  0  0  0  0  0  0  0  0
    8.4348   -2.3851   25.8052 N   0  0  0  0  0  0  0  0  0  0  0  0
    4.6508   -9.9885   18.0403 N   0  0  0  0  0  0  0  0  0  0  0  0
   -0.9857  -11.1826   15.2952 C   0  0  0  0  0  0  0  0  0  0  0  0
    3.6420   -8.7375   15.8655 C   0  0  0  0  0  0  0  0  0  0  0  0
   -2.0908  -11.3074   13.3071 C   0  0  0  0  0  0  0  0  0  0  0  0
    9.6391   -2.9438   25.3515 N   0  0  0  0  0  0  0  0  0  0  0  0
    1.0833  -10.5307   17.6441 N   0  0  0  0  0  0  0  0  0  0  0  0
    7.1530   -7.4314   16.1594 N   0  0  0  0  0  0  0  0  0  0  0  0
   -1.8800  -11.7358   14.5726 C   0  0  0  0  0  0  0  0  0  0  0  0
    2.8789   -9.5415   16.6978 C   0  0  0  0  0  0  0  0  0  0  0  0
   10.4052   -3.7362   16.6205 C   0  0  0  0  0  0  0  0  0  0  0  0
    7.3122   -7.8591   16.4586 C   0  0  0  0  0  0  0  0  0  0  0  0
    5.4964   -9.0524   17.2511 C   0  0  0  0  0  0  0  0  0  0  0  0
    6.6899   -8.7010   17.6367 S   0  0  0  0  0  0  0  0  0  0  0  0
   10.8722   -4.4010   18.7856 C   0  0  0  0  0  0  0  0  0  0  0  0
   -0.4523   -9.6503   13.5812 C   0  0  0  0  0  0  0  0  0  0  0  0
    6.7729   -5.9893   15.4009 O   0  0  0  0  0  0  0  0  0  0  0  0
    8.8033   -7.1741   17.1248 C   0  0  0  0  0  0  0  0  0  0  0  0
    6.0190   -7.5169   15.3183 C   0  0  0  0  0  0  0  0  0  0  0  0
   10.9776   -3.5178   17.8068 C   0  0  0  0  0  0  0  0  0  0  0  0
    3.2191   -8.1509   14.8741 O   0  0  0  0  0  0  0  0  0  0  0  0
    7.9716   -3.1670   26.8638 N   0  0  0  0  0  0  0  0  0  0  0  0
    9.6647   -4.8417   16.3849 C   0  0  0  0  0  0  0  0  0  0  0  0
    2.1542  -10.8790   18.4088 C   0  0  0  0  0  0  0  0  0  0  0  0
    1.5180   -9.7720   16.6407 N   0  0  0  0  0  0  0  0  0  0  0  0
   -1.3957  -10.2588   12.7911 C   0  0  0  0  0  0  0  0  0  0  0  0
  1 10  4  0
  1 18  4  0
  1 32  4  0
  2  8  4  0
  2 26  1  0
  2 31  4  0
  3  7  1  0
  3 33  1  0
  4  6  4  0
  4 14  4  0
  5 12  4  0
  5 21  4  0
  5 27  1  0
  6 30  4  0
  7 11  4  0
  7 24  4  0
  8 23  4  0
  9 14  4  0
  9 30  4  0
 10 21  4  0
 11 17  4  0
 12 18  4  0
 12 29  2  0
 13 17  4  0
 13 34  4  0
 15 32  4  0
 15 33  4  0
 16 20  1  0
 16 26  1  0
 16 27  1  0
 18 33  4  0
 19 28  4  0
 19 31  4  0
 20 22  4  0
 20 26  1  0
 21 22  1  0
 23 28  4  0
 24 34  4  0
M  END
$$$$

 Created by Python create_sdf_string function

 34 76  0  0  0  0  0  0  0  0999 V2000
    3.6483  -10.1998   17.8238 C   0  0  0  0  0  0  0  0  0  0  0  0
    9.6522   -5.9235   17.4329 C   0  0  0  0  0  0  0  0  0  0  0  0
    0.3184   -9.2289   16.0554 C   0  0  0  0  0  0  0  0  0  0  0  0
   10.1062   -3.8098   26.4465 O   0  0  0  0  0  0  0  0  0  0  0  0
    5.7192   -9.1893   16.1405 O   0  0  0  0  0  0  0  0  0  0  0  0
    8.9239   -4.3765   27.3601 N   0  0  0  0  0  0  0  0  0  0  0  0
   -0.1949  -10.0823   15.3841 F   0  0  0  0  0  0  0  0  0  0  0  0
   10.0273   -5.4747   18.3308 C   0  0  0  0  0  0  0  0  0  0  0  0
    7.9236   -2.4813   25.6185 N   0  0  0  0  0  0  0  0  0  0  0  0
    5.7977  -10.2345   17.7912 N   0  0  0  0  0  0  0  0  0  0  0  0
   -0.6236  -11.0718   14.9684 C   0  0  0  0  0  0  0  0  0  0  0  0
   -2.1616  -11.7435   13.1685 C   0  0  0  0  0  0  0  0  0  0  0  0
    9.5477   -3.0599   25.8533 N   0  0  0  0  0  0  0  0  0  0  0  0
   -2.1414  -11.6722   14.5300 P   0  0  0  0  0  0  0  0  0  0  0  0
    3.2791   -9.4089   16.6624 C   0  0  0  0  0  0  0  0  0  0  0  0
   10.5265   -4.1110   16.6597 Cl  0  0  0  0  0  0  0  0  0  0  0  0
    6.9397   -7.9118   16.1268 C   0  0  0  0  0  0  0  0  0  0  0  0
    5.7675  -10.0316   16.6461 C   0  0  0  0  0  0  0  0  0  0  0  0
    6.5408   -9.1935   17.5579 S   0  0  0  0  0  0  0  0  0  0  0  0
   -0.5362   -9.4572   13.7519 C   0  0  0  0  0  0  0  0  0  0  0  0
    7.0618   -5.7229   15.6087 O   0  0  0  0  0  0  0  0  0  0  0  0
    8.7175   -7.6492   17.5496 C   0  0  0  0  0  0  0  0  0  0  0  0
    5.8964   -7.0214   15.6306 C   0  0  0  0  0  0  0  0  0  0  0  0
   11.0182   -3.4271   18.0684 C   0  0  0  0  0  0  0  0  0  0  0  0
    3.4210   -8.4754   14.9696 O   0  0  0  0  0  0  0  0  0  0  0  0
    9.5996   -5.0051   16.4568 C   0  0  0  0  0  0  0  0  0  0  0  0
    2.2952  -11.0165   18.2159 C   0  0  0  0  0  0  0  0  0  0  0  0
    2.0030   -9.4661   16.6709 N   0  0  0  0  0  0  0  0  0  0  0  0
    2.5306   -8.1131   17.2721 He  0  0  0  0  0  0  0  0  0  0  0  0
    1.1602  -10.4475   17.3834 He  0  0  0  0  0  0  0  0  0  0  0  0
    6.8537   -6.4279   16.4655 He  0  0  0  0  0  0  0  0  0  0  0  0
   11.0765   -4.1626   18.8675 He  0  0  0  0  0  0  0  0  0  0  0  0
    7.8531   -3.2141   26.9148 He  0  0  0  0  0  0  0  0  0  0  0  0
   -1.6332  -10.1189   12.8975 He  0  0  0  0  0  0  0  0  0  0  0  0
  1  4  4  0
  1  7  4  0
  1 10  4  0
  1 14  1  0
  1 15  4  0
  1 17  4  0
  1 27  4  0
  2  3  3  0
  2  4  1  0
  2  5  1  0
  2  8  4  0
  2 18  4  0
  2 23  2  0
  2 25  2  0
  2 26  4  0
  3  7  1  0
  3 10  4  0
  3 17  3  0
  3 26  1  0
  3 27  2  0
  3 28  1  0
  4 13  4  0
  4 20  4  0
  4 23  2  0
  5  6  2  0
  5  9  2  0
  5 12  4  0
  5 13  2  0
  5 15  4  0
  5 18  2  0
  5 20  4  0
  5 21  3  0
  5 26  2  0
  7  8  2  0
  7 11  4  0
  7 20  4  0
  8 10  2  0
  8 11  3  0
  8 17  4  0
  8 18  2  0
  8 22  3  0
  9 10  2  0
  9 13  4  0
  9 23  4  0
  9 25  1  0
  9 27  4  0
 10 12  3  0
 10 15  3  0
 10 18  2  0
 10 19  4  0
 10 20  3  0
 10 23  2  0
 10 26  4  0
 11 21  3  0
 12 13  4  0
 12 14  4  0
 12 24  4  0
 13 17  2  0
 14 27  2  0
 14 28  1  0
 15 16  4  0
 15 19  4  0
 15 28  4  0
 16 24  1  0
 16 26  4  0
 17 20  4  0
 17 22  1  0
 17 23  1  0
 17 25  2  0
 17 26  1  0
 18 19  1  0
 18 26  4  0
 18 28  4  0
 19 23  2  0
 23 24  3  0
 25 28  3  0
M  END
$$$$

 Created by Python create_sdf_string function

 34 36  0  0  0  0  0  0  0  0999 V2000
    3.5292  -10.2845   17.8803 C   0  0  0  0  0  0  0  0  0  0  0  0
    9.4907   -5.7861   17.4711 C   0  0  0  0  0  0  0  0  0  0  0  0
    0.6351   -9.1763   15.8830 C   0  0  0  0  0  0  0  0  0  0  0  0
    9.9765   -3.8910   26.4539 N   0  0  0  0  0  0  0  0  0  0  0  0
    5.1332   -8.6539   16.2746 N   0  0  0  0  0  0  0  0  0  0  0  0
    8.8633   -4.2231   27.2964 N   0  0  0  0  0  0  0  0  0  0  0  0
   -0.3307   -9.9649   14.9952 C   0  0  0  0  0  0  0  0  0  0  0  0
   10.0926   -5.5647   18.6545 C   0  0  0  0  0  0  0  0  0  0  0  0
    8.1619   -2.5499   25.8208 N   0  0  0  0  0  0  0  0  0  0  0  0
    4.9005  -10.2650   18.0093 N   0  0  0  0  0  0  0  0  0  0  0  0
   -0.9240  -11.1790   15.3320 C   0  0  0  0  0  0  0  0  0  0  0  0
    3.6128   -8.6655   16.0421 C   0  0  0  0  0  0  0  0  0  0  0  0
   -2.0784  -11.3540   13.3097 C   0  0  0  0  0  0  0  0  0  0  0  0
    9.5440   -2.8985   25.5589 N   0  0  0  0  0  0  0  0  0  0  0  0
    1.3368  -10.5446   17.6277 N   0  0  0  0  0  0  0  0  0  0  0  0
    7.0871   -6.8919   16.2788 C   0  0  0  0  0  0  0  0  0  0  0  0
   -1.7194  -11.8698   14.5069 C   0  0  0  0  0  0  0  0  0  0  0  0
    3.0131   -9.4187   16.8432 C   0  0  0  0  0  0  0  0  0  0  0  0
   10.4534   -3.7595   16.6615 C   0  0  0  0  0  0  0  0  0  0  0  0
    7.0783   -7.7426   16.5480 C   0  0  0  0  0  0  0  0  0  0  0  0
    5.6222   -9.4605   17.1649 C   0  0  0  0  0  0  0  0  0  0  0  0
    6.7621   -9.1877   17.6270 S   0  0  0  0  0  0  0  0  0  0  0  0
   10.8257   -4.4266   18.8569 C   0  0  0  0  0  0  0  0  0  0  0  0
   -0.6070   -9.5112   13.7526 C   0  0  0  0  0  0  0  0  0  0  0  0
    7.0219   -5.7170   15.6622 O   0  0  0  0  0  0  0  0  0  0  0  0
    8.6523   -7.1914   17.3325 C   0  0  0  0  0  0  0  0  0  0  0  0
    5.6295   -7.3457   15.8541 C   0  0  0  0  0  0  0  0  0  0  0  0
   11.0137   -3.5387   17.8740 C   0  0  0  0  0  0  0  0  0  0  0  0
    3.1987   -7.8228   15.2849 O   0  0  0  0  0  0  0  0  0  0  0  0
    7.7591   -3.3983   26.8806 C   0  0  0  0  0  0  0  0  0  0  0  0
    9.5759   -4.8434   16.4302 C   0  0  0  0  0  0  0  0  0  0  0  0
    2.4487  -10.9361   18.3378 C   0  0  0  0  0  0  0  0  0  0  0  0
    1.5991   -9.6590   16.7307 N   0  0  0  0  0  0  0  0  0  0  0  0
   -1.4922  -10.1968   12.9183 C   0  0  0  0  0  0  0  0  0  0  0  0
  1 10  4  0
  1 18  4  0
  1 32  4  0
  2  8  4  0
  2 26  1  0
  2 31  4  0
  3  7  1  0
  3 33  1  0
  4  6  4  0
  4 14  4  0
  5 12  4  0
  5 21  4  0
  6 30  4  0
  7 11  4  0
  7 24  4  0
  8 23  4  0
  9 14  4  0
  9 30  4  0
 10 21  4  0
 11 17  4  0
 12 18  4  0
 12 29  2  0
 13 17  4  0
 13 34  4  0
 15 32  4  0
 15 33  4  0
 16 20  1  0
 16 25  2  0
 18 33  4  0
 19 28  4  0
 19 31  4  0
 20 26  1  0
 20 27  1  0
 21 22  1  0
 23 28  4  0
 24 34  4  0
M  END
$$$$

 Created by Python create_sdf_string function

 34 72  0  0  0  0  0  0  0  0999 V2000
    9.4777   -5.8072   17.4106 C   0  0  0  0  0  0  0  0  0  0  0  0
    0.9579   -8.9822   16.0607 C   0  0  0  0  0  0  0  0  0  0  0  0
   10.2820   -4.0220   26.9868 C   0  0  0  0  0  0  0  0  0  0  0  0
    8.6995   -4.5608   27.3287 N   0  0  0  0  0  0  0  0  0  0  0  0
   -0.0362  -10.2225   15.0175 C   0  0  0  0  0  0  0  0  0  0  0  0
   10.1860   -5.5084   18.2546 C   0  0  0  0  0  0  0  0  0  0  0  0
    8.1716   -3.0598   25.7369 N   0  0  0  0  0  0  0  0  0  0  0  0
    4.4951  -10.9666   18.0307 N   0  0  0  0  0  0  0  0  0  0  0  0
   -1.0392  -11.4334   15.2997 C   0  0  0  0  0  0  0  0  0  0  0  0
   -2.1786  -11.9215   13.2527 C   0  0  0  0  0  0  0  0  0  0  0  0
    9.5785   -2.8030   25.5812 N   0  0  0  0  0  0  0  0  0  0  0  0
    1.1660  -10.6299   17.6559 N   0  0  0  0  0  0  0  0  0  0  0  0
    6.7477   -8.3126   16.7815 C   0  0  0  0  0  0  0  0  0  0  0  0
   -1.4554  -11.7262   14.4291 C   0  0  0  0  0  0  0  0  0  0  0  0
    2.8058   -9.4148   17.4538 C   0  0  0  0  0  0  0  0  0  0  0  0
   10.0507   -3.6779   16.6992 S   0  0  0  0  0  0  0  0  0  0  0  0
    7.4437   -7.7708   16.1543 Br  0  0  0  0  0  0  0  0  0  0  0  0
    6.8407   -9.0918   17.6682 S   0  0  0  0  0  0  0  0  0  0  0  0
   10.7899   -4.8954   19.1058 C   0  0  0  0  0  0  0  0  0  0  0  0
   -0.7929   -9.4726   13.9313 F   0  0  0  0  0  0  0  0  0  0  0  0
    6.9329   -5.3079   15.8663 O   0  0  0  0  0  0  0  0  0  0  0  0
    8.3058   -7.3024   17.6087 C   0  0  0  0  0  0  0  0  0  0  0  0
   11.3092   -3.5479   17.7533 O   0  0  0  0  0  0  0  0  0  0  0  0
    2.6668   -7.6869   15.2655 O   0  0  0  0  0  0  0  0  0  0  0  0
    7.4544   -3.4261   27.1622 C   0  0  0  0  0  0  0  0  0  0  0  0
    9.1889   -4.9429   16.7779 C   0  0  0  0  0  0  0  0  0  0  0  0
    2.5449  -10.7734   18.8442 C   0  0  0  0  0  0  0  0  0  0  0  0
    1.8698   -9.7098   16.8809 N   0  0  0  0  0  0  0  0  0  0  0  0
   -1.6290  -10.1512   12.8752 C   0  0  0  0  0  0  0  0  0  0  0  0
    3.6672  -10.3900   18.0865 He  0  0  0  0  0  0  0  0  0  0  0  0
    5.1272   -8.7980   16.1455 He  0  0  0  0  0  0  0  0  0  0  0  0
    2.7821   -8.9998   16.2870 He  0  0  0  0  0  0  0  0  0  0  0  0
    6.0113   -9.7459   18.3796 He  0  0  0  0  0  0  0  0  0  0  0  0
    5.6017   -7.2915   17.0020 He  0  0  0  0  0  0  0  0  0  0  0  0
  1  3  4  0
  1  6  4  0
  1 13  2  0
  1 15  4  0
  1 17  2  0
  1 21  4  0
  1 22  1  0
  1 26  4  0
  2  5  1  0
  2 28  1  0
  3  4  4  0
  3 11  4  0
  3 13  2  0
  3 23  1  0
  4  5  2  0
  4 25  4  0
  5  8  4  0
  5  9  4  0
  5 11  1  0
  5 17  1  0
  5 25  2  0
  5 26  4  0
  5 29  2  0
  6 17  1  0
  6 19  4  0
  6 20  1  0
  7 11  4  0
  7 14  1  0
  7 25  4  0
  7 28  1  0
  7 29  1  0
  8 11  2  0
  8 18  4  0
  8 19  3  0
  8 21  1  0
  8 26  2  0
  9 13  1  0
  9 17  2  0
  9 19  3  0
 10 11  4  0
 10 14  4  0
 10 18  1  0
 10 29  4  0
 11 13  3  0
 11 15  2  0
 11 26  2  0
 11 27  4  0
 12 24  3  0
 12 27  4  0
 12 28  4  0
 12 29  1  0
 13 19  3  0
 13 21  1  0
 13 23  2  0
 13 24  4  0
 13 27  4  0
 15 21  3  0
 15 26  1  0
 15 28  4  0
 16 17  1  0
 16 23  4  0
 17 18  3  0
 17 25  1  0
 17 26  3  0
 18 20  1  0
 18 28  2  0
 19 20  1  0
 19 23  4  0
 22 23  3  0
 24 29  4  0
 26 27  4  0
 26 29  3  0
M  END
$$$$

 Created by Python create_sdf_string function

 34 37  0  0  0  0  0  0  0  0999 V2000
    3.3510  -10.3976   18.0785 C   0  0  0  0  0  0  0  0  0  0  0  0
    9.3392   -5.8633   17.4804 C   0  0  0  0  0  0  0  0  0  0  0  0
    0.5867   -9.2638   16.0188 C   0  0  0  0  0  0  0  0  0  0  0  0
    9.9605   -3.9829   26.7125 C   0  0  0  0  0  0  0  0  0  0  0  0
    4.7614   -8.6423   16.7252 N   0  0  0  0  0  0  0  0  0  0  0  0
    8.7775   -4.3718   27.4173 N   0  0  0  0  0  0  0  0  0  0  0  0
   -0.2335  -10.0708   15.0938 C   0  0  0  0  0  0  0  0  0  0  0  0
   10.1355   -5.7471   18.5958 C   0  0  0  0  0  0  0  0  0  0  0  0
    8.1379   -2.7543   25.8524 N   0  0  0  0  0  0  0  0  0  0  0  0
    4.6709  -10.3256   18.3200 N   0  0  0  0  0  0  0  0  0  0  0  0
   -0.7406  -11.3586   15.3530 C   0  0  0  0  0  0  0  0  0  0  0  0
    3.4227   -8.7084   16.2433 C   0  0  0  0  0  0  0  0  0  0  0  0
   -1.9456  -11.4534   13.3688 C   0  0  0  0  0  0  0  0  0  0  0  0
    9.5738   -3.0509   25.7216 N   0  0  0  0  0  0  0  0  0  0  0  0
    1.1872  -10.7372   17.8847 N   0  0  0  0  0  0  0  0  0  0  0  0
    6.4225   -7.8810   16.8150 C   0  0  0  0  0  0  0  0  0  0  0  0
   -1.5607  -12.0143   14.5540 C   0  0  0  0  0  0  0  0  0  0  0  0
    2.7984   -9.5833   16.9782 C   0  0  0  0  0  0  0  0  0  0  0  0
   10.2740   -3.7128   16.8386 C   0  0  0  0  0  0  0  0  0  0  0  0
    7.3901   -7.3729   16.6077 C   0  0  0  0  0  0  0  0  0  0  0  0
    5.3581   -9.4721   17.6173 C   0  0  0  0  0  0  0  0  0  0  0  0
    6.8116   -9.3087   17.7417 S   0  0  0  0  0  0  0  0  0  0  0  0
   10.9551   -4.6616   18.8052 C   0  0  0  0  0  0  0  0  0  0  0  0
   -0.6233   -9.5522   13.8509 C   0  0  0  0  0  0  0  0  0  0  0  0
    7.0264   -5.7448   15.7072 O   0  0  0  0  0  0  0  0  0  0  0  0
    8.5936   -7.0621   17.3238 C   0  0  0  0  0  0  0  0  0  0  0  0
    5.5402   -7.5588   16.5991 C   0  0  0  0  0  0  0  0  0  0  0  0
   11.0190   -3.6316   17.9487 C   0  0  0  0  0  0  0  0  0  0  0  0
    3.0193   -7.9648   15.3514 O   0  0  0  0  0  0  0  0  0  0  0  0
    7.6574   -3.6454   26.8396 C   0  0  0  0  0  0  0  0  0  0  0  0
    9.4141   -4.7554   16.5746 C   0  0  0  0  0  0  0  0  0  0  0  0
    2.3368  -11.0757   18.5739 C   0  0  0  0  0  0  0  0  0  0  0  0
    1.5054   -9.8555   16.9270 N   0  0  0  0  0  0  0  0  0  0  0  0
   -1.4998  -10.2369   13.0110 C   0  0  0  0  0  0  0  0  0  0  0  0
  1 10  4  0
  1 18  4  0
  1 32  4  0
  2  8  4  0
  2 26  1  0
  2 31  4  0
  3  7  1  0
  3 33  1  0
  4  6  4  0
  4 14  4  0
  5 12  4  0
  5 21  4  0
  5 27  4  0
  6 30  4  0
  7 11  4  0
  7 24  4  0
  8 23  4  0
  9 14  4  0
  9 30  4  0
 10 21  4  0
 11 17  4  0
 12 18  4  0
 12 29  2  0
 13 17  4  0
 13 34  4  0
 15 32  4  0
 15 33  4  0
 16 20  1  0
 16 22  4  0
 16 27  4  0
 18 33  4  0
 19 28  4  0
 19 31  4  0
 20 26  1  0
 21 22  4  0
 23 28  4  0
 24 34  4  0
M  END
$$$$

 Created by Python create_sdf_string function

 34 91  0  0  0  0  0  0  0  0999 V2000
    3.2980  -10.3118   18.0200 C   0  0  0  0  0  0  0  0  0  0  0  0
    9.5750   -5.5960   17.7292 N   0  0  0  0  0  0  0  0  0  0  0  0
    0.7349   -9.1258   16.2151 C   0  0  0  0  0  0  0  0  0  0  0  0
    9.5972   -3.7972   26.8396 C   0  0  0  0  0  0  0  0  0  0  0  0
    4.9481   -7.7720   17.6654 N   0  0  0  0  0  0  0  0  0  0  0  0
    8.7728   -4.4044   27.5119 N   0  0  0  0  0  0  0  0  0  0  0  0
   -0.2504   -9.9139   14.8409 C   0  0  0  0  0  0  0  0  0  0  0  0
   10.0258   -6.2917   18.5477 C   0  0  0  0  0  0  0  0  0  0  0  0
    8.4160   -2.3022   26.0409 N   0  0  0  0  0  0  0  0  0  0  0  0
    4.0163   -9.1377   17.9324 N   0  0  0  0  0  0  0  0  0  0  0  0
   -0.9749  -11.2337   15.2515 C   0  0  0  0  0  0  0  0  0  0  0  0
    3.5195   -8.8565   16.3639 C   0  0  0  0  0  0  0  0  0  0  0  0
   -1.8180  -11.5547   13.3110 C   0  0  0  0  0  0  0  0  0  0  0  0
    9.2815   -3.2500   25.5857 N   0  0  0  0  0  0  0  0  0  0  0  0
    1.0419  -10.6687   17.6672 N   0  0  0  0  0  0  0  0  0  0  0  0
    6.9076   -8.6629   18.1943 Cl  0  0  0  0  0  0  0  0  0  0  0  0
   -1.3166  -12.3675   14.6727 C   0  0  0  0  0  0  0  0  0  0  0  0
    2.6290   -9.2637   17.2856 C   0  0  0  0  0  0  0  0  0  0  0  0
   10.4920   -3.7742   16.6717 C   0  0  0  0  0  0  0  0  0  0  0  0
    7.1628   -6.6352   17.8979 C   0  0  0  0  0  0  0  0  0  0  0  0
    4.9068  -10.0164   17.9653 Cl  0  0  0  0  0  0  0  0  0  0  0  0
    7.1406   -8.8890   17.6581 F   0  0  0  0  0  0  0  0  0  0  0  0
   -0.8397   -9.5067   14.1350 C   0  0  0  0  0  0  0  0  0  0  0  0
    7.1629   -5.2747   15.8566 O   0  0  0  0  0  0  0  0  0  0  0  0
    8.2858   -6.6873   17.5244 C   0  0  0  0  0  0  0  0  0  0  0  0
    5.5751   -7.8228   17.2839 C   0  0  0  0  0  0  0  0  0  0  0  0
   11.1730   -3.7694   18.0858 C   0  0  0  0  0  0  0  0  0  0  0  0
    3.0938   -7.5222   15.1273 O   0  0  0  0  0  0  0  0  0  0  0  0
    7.6414   -3.7365   26.4675 C   0  0  0  0  0  0  0  0  0  0  0  0
    8.8524   -4.4437   16.5694 C   0  0  0  0  0  0  0  0  0  0  0  0
    2.3969  -11.0201   18.5754 C   0  0  0  0  0  0  0  0  0  0  0  0
    1.7216   -9.5806   16.7997 N   0  0  0  0  0  0  0  0  0  0  0  0
   10.9633   -4.5532   18.6160 He  0  0  0  0  0  0  0  0  0  0  0  0
   -1.6916  -10.2758   12.7794 He  0  0  0  0  0  0  0  0  0  0  0  0
  1 10  2  0
  1 18  4  0
  1 21  3  0
  1 31  4  0
  2  8  4  0
  2 12  2  0
  2 20  1  0
  2 25  1  0
  2 30  4  0
  3  7  1  0
  3 12  2  0
  3 20  2  0
  3 21  3  0
  3 25  4  0
  3 26  2  0
  3 28  1  0
  3 32  1  0
  4  6  4  0
  4 10  3  0
  4 11  1  0
  4 18  1  0
  4 19  1  0
  4 21  3  0
  4 32  1  0
  5  6  4  0
  5 12  3  0
  5 20  1  0
  5 27  1  0
  6 10  4  0
  6 12  4  0
  6 17  1  0
  6 29  4  0
  7 11  4  0
  7 16  4  0
  7 23  4  0
  8 10  2  0
  8 18  2  0
  8 20  2  0
  8 23  1  0
  9 13  2  0
  9 14  4  0
  9 20  3  0
  9 29  4  0
 10 12  3  0
 10 16  4  0
 10 17  2  0
 10 18  3  0
 10 20  1  0
 10 21  4  0
 11 17  4  0
 11 28  2  0
 12 14  3  0
 12 16  3  0
 12 19  2  0
 12 22  1  0
 12 25  1  0
 12 28  2  0
 12 29  1  0
 13 17  4  0
 13 20  2  0
 14 17  1  0
 14 21  2  0
 15 31  4  0
 16 18  3  0
 16 20  1  0
 16 22  2  0
 16 25  4  0
 16 30  3  0
 16 31  4  0
 17 18  4  0
 18 20  2  0
 18 21  2  0
 18 32  4  0
 19 27  4  0
 19 29  2  0
 19 30  4  0
 20 25  1  0
 20 30  4  0
 21 22  4  0
 21 24  2  0
 21 26  3  0
 21 32  2  0
 22 28  3  0
 22 31  2  0
 23 26  1  0
 24 26  2  0
 24 29  2  0
 25 26  3  0
 26 28  3  0
 26 31  3  0
 26 32  4  0
M  END
$$$$

 Created by Python create_sdf_string function

 34 37  0  0  0  0  0  0  0  0999 V2000
    3.3273  -10.4079   18.2063 C   0  0  0  0  0  0  0  0  0  0  0  0
    9.2565   -5.5070   17.4176 C   0  0  0  0  0  0  0  0  0  0  0  0
    0.4572   -9.2040   15.9948 C   0  0  0  0  0  0  0  0  0  0  0  0
    9.8309   -3.9328   26.6794 C   0  0  0  0  0  0  0  0  0  0  0  0
    4.8407   -7.7162   16.6916 C   0  0  0  0  0  0  0  0  0  0  0  0
    8.6320   -4.2975   27.3450 N   0  0  0  0  0  0  0  0  0  0  0  0
   -0.3155  -10.0641   15.1018 C   0  0  0  0  0  0  0  0  0  0  0  0
   10.0996   -5.6939   18.5553 C   0  0  0  0  0  0  0  0  0  0  0  0
    8.1617   -2.6045   25.7612 N   0  0  0  0  0  0  0  0  0  0  0  0
    4.3796   -9.6537   17.8651 N   0  0  0  0  0  0  0  0  0  0  0  0
   -0.7298  -11.4478   15.3545 C   0  0  0  0  0  0  0  0  0  0  0  0
    3.3598   -8.3117   16.4170 C   0  0  0  0  0  0  0  0  0  0  0  0
   -1.8430  -11.5475   13.3257 C   0  0  0  0  0  0  0  0  0  0  0  0
    9.5577   -2.9570   25.6754 N   0  0  0  0  0  0  0  0  0  0  0  0
    1.0130  -10.7529   17.8310 N   0  0  0  0  0  0  0  0  0  0  0  0
    6.7174   -8.0013   17.7460 C   0  0  0  0  0  0  0  0  0  0  0  0
   -1.4563  -12.1311   14.5049 C   0  0  0  0  0  0  0  0  0  0  0  0
    2.6755   -9.3527   16.9875 C   0  0  0  0  0  0  0  0  0  0  0  0
   10.4979   -3.6061   16.9135 C   0  0  0  0  0  0  0  0  0  0  0  0
    7.3907   -6.9305   17.9785 N   0  0  0  0  0  0  0  0  0  0  0  0
    5.2992   -9.6622   17.9269 C   0  0  0  0  0  0  0  0  0  0  0  0
    6.8411   -8.9889   17.8183 C   0  0  0  0  0  0  0  0  0  0  0  0
   11.1199   -4.7948   18.8159 C   0  0  0  0  0  0  0  0  0  0  0  0
   -0.7527   -9.5206   13.9122 C   0  0  0  0  0  0  0  0  0  0  0  0
    6.9943   -5.8939   15.9260 O   0  0  0  0  0  0  0  0  0  0  0  0
    8.0687   -6.4312   17.1463 C   0  0  0  0  0  0  0  0  0  0  0  0
    5.7368   -7.5844   16.8560 C   0  0  0  0  0  0  0  0  0  0  0  0
   11.2486   -3.7629   18.0116 C   0  0  0  0  0  0  0  0  0  0  0  0
    2.8764   -7.6367   15.5036 O   0  0  0  0  0  0  0  0  0  0  0  0
    7.5767   -3.5144   26.6974 C   0  0  0  0  0  0  0  0  0  0  0  0
    9.4395   -4.4843   16.5835 C   0  0  0  0  0  0  0  0  0  0  0  0
    2.0688  -11.0935   18.5153 C   0  0  0  0  0  0  0  0  0  0  0  0
    1.4023   -9.7519   16.8768 N   0  0  0  0  0  0  0  0  0  0  0  0
   -1.5253  -10.2772   13.0456 C   0  0  0  0  0  0  0  0  0  0  0  0
  1 10  4  0
  1 32  4  0
  2  8  4  0
  2 26  1  0
  2 31  4  0
  3  7  1  0
  3 33  1  0
  4  6  4  0
  4 14  4  0
  5 12  4  0
  5 27  4  0
  6 30  4  0
  7 11  4  0
  7 24  4  0
  8 23  4  0
  9 14  4  0
  9 30  4  0
 10 21  4  0
 11 17  4  0
 12 18  4  0
 12 29  2  0
 13 17  4  0
 13 34  4  0
 15 32  4  0
 15 33  4  0
 16 20  1  0
 16 22  4  0
 16 27  4  0
 18 33  4  0
 19 28  4  0
 19 31  4  0
 20 26  1  0
 21 22  4  0
 23 28  4  0
 24 34  4  0
 25 26  2  0
 25 27  2  0
M  END
$$$$

 Created by Python create_sdf_string function

 34 95  0  0  0  0  0  0  0  0999 V2000
    2.9439  -10.7907   18.3211 C   0  0  0  0  0  0  0  0  0  0  0  0
    9.2147   -5.4054   17.3562 C   0  0  0  0  0  0  0  0  0  0  0  0
   10.0047   -4.1993   26.6975 C   0  0  0  0  0  0  0  0  0  0  0  0
    4.9488   -7.2209   15.5872 F   0  0  0  0  0  0  0  0  0  0  0  0
    8.7267   -4.2977   27.0238 N   0  0  0  0  0  0  0  0  0  0  0  0
   -0.2948  -10.1598   15.0870 C   0  0  0  0  0  0  0  0  0  0  0  0
   10.0131   -6.2441   18.5552 C   0  0  0  0  0  0  0  0  0  0  0  0
    8.0762   -2.4894   25.5505 N   0  0  0  0  0  0  0  0  0  0  0  0
    4.3189   -9.9198   17.6184 N   0  0  0  0  0  0  0  0  0  0  0  0
   -0.3862  -11.3691   15.4022 C   0  0  0  0  0  0  0  0  0  0  0  0
    2.8762   -8.3492   15.9038 C   0  0  0  0  0  0  0  0  0  0  0  0
   -1.8134  -11.5045   13.2572 C   0  0  0  0  0  0  0  0  0  0  0  0
    9.4426   -3.3865   25.6150 N   0  0  0  0  0  0  0  0  0  0  0  0
    1.1340  -10.5201   17.6640 N   0  0  0  0  0  0  0  0  0  0  0  0
    6.5801   -7.7832   16.6669 C   0  0  0  0  0  0  0  0  0  0  0  0
   -1.5565  -12.3493   14.3112 C   0  0  0  0  0  0  0  0  0  0  0  0
    2.6561   -9.1797   17.0535 C   0  0  0  0  0  0  0  0  0  0  0  0
   10.5557   -3.6521   16.8774 C   0  0  0  0  0  0  0  0  0  0  0  0
    7.5227   -7.4183   17.6561 C   0  0  0  0  0  0  0  0  0  0  0  0
    5.2301  -10.1947   18.0957 F   0  0  0  0  0  0  0  0  0  0  0  0
    6.7025   -8.9574   18.0993 C   0  0  0  0  0  0  0  0  0  0  0  0
   11.0801   -4.4359   18.4790 C   0  0  0  0  0  0  0  0  0  0  0  0
   -0.5898   -9.4061   13.6971 C   0  0  0  0  0  0  0  0  0  0  0  0
    6.8593   -5.7624   15.8355 C   0  0  0  0  0  0  0  0  0  0  0  0
    8.1903   -6.8031   17.0733 F   0  0  0  0  0  0  0  0  0  0  0  0
    4.8829   -6.6964   15.4657 F   0  0  0  0  0  0  0  0  0  0  0  0
   11.1594   -3.9026   18.1219 C   0  0  0  0  0  0  0  0  0  0  0  0
    3.1024   -7.6301   15.7049 O   0  0  0  0  0  0  0  0  0  0  0  0
    7.3785   -3.5258   26.9703 C   0  0  0  0  0  0  0  0  0  0  0  0
    9.6772   -4.6982   16.3074 C   0  0  0  0  0  0  0  0  0  0  0  0
    2.1110  -11.2265   18.2566 C   0  0  0  0  0  0  0  0  0  0  0  0
    1.2531   -9.5156   17.0139 N   0  0  0  0  0  0  0  0  0  0  0  0
   -1.3488   -9.9103   13.1343 C   0  0  0  0  0  0  0  0  0  0  0  0
    0.2808   -9.2066   16.0602 He  0  0  0  0  0  0  0  0  0  0  0  0
  1  9  4  0
  1 10  1  0
  1 16  1  0
  1 18  4  0
  1 22  1  0
  1 28  1  0
  1 31  4  0
  1 33  1  0
  2  4  4  0
  2  7  4  0
  2  8  2  0
  2  9  1  0
  2 25  1  0
  2 26  3  0
  2 29  3  0
  2 30  4  0
  3  7  2  0
  3  9  4  0
  3 11  4  0
  3 13  4  0
  3 20  3  0
  4  9  3  0
  4 15  1  0
  4 16  4  0
  4 28  2  0
  4 32  1  0
  5  6  2  0
  5 11  3  0
  5 15  3  0
  5 26  3  0
  5 29  4  0
  6 13  1  0
  6 26  1  0
  7 22  4  0
  7 25  2  0
  7 26  4  0
  8 27  4  0
  8 29  4  0
  9 10  2  0
  9 13  3  0
  9 15  3  0
  9 20  4  0
  9 21  4  0
  9 22  2  0
  9 25  1  0
  9 26  1  0
  9 29  1  0
 10 12  3  0
 10 16  4  0
 10 19  3  0
 10 20  3  0
 11 20  1  0
 11 28  2  0
 11 31  1  0
 12 15  3  0
 12 16  4  0
 12 26  3  0
 12 31  1  0
 12 33  4  0
 13 26  2  0
 14 15  1  0
 14 24  1  0
 14 31  4  0
 14 32  4  0
 15 19  1  0
 15 26  4  0
 15 27  3  0
 15 28  4  0
 15 33  4  0
 16 26  1  0
 17 31  4  0
 17 32  4  0
 17 33  4  0
 18 27  3  0
 18 30  4  0
 19 22  4  0
 19 25  1  0
 19 33  2  0
 20 22  2  0
 20 28  1  0
 21 33  1  0
 22 26  3  0
 22 27  3  0
 23 26  4  0
 23 33  4  0
 24 25  2  0
 24 26  2  0
 25 26  3  0
 25 29  3  0
 26 27  1  0
 26 31  2  0
 27 29  2  0
 27 33  4  0
 28 30  1  0
 28 33  3  0
M  END
$$$$

 Created by Python create_sdf_string function

 34 39  0  0  0  0  0  0  0  0999 V2000
    3.2284  -10.8066   18.3970 C   0  0  0  0  0  0  0  0  0  0  0  0
    9.1757   -5.5977   17.2171 C   0  0  0  0  0  0  0  0  0  0  0  0
    0.3209   -9.2078   16.0776 C   0  0  0  0  0  0  0  0  0  0  0  0
    9.8230   -4.1541   26.5279 C   0  0  0  0  0  0  0  0  0  0  0  0
    4.7752   -8.1653   16.5245 N   0  0  0  0  0  0  0  0  0  0  0  0
    8.5811   -4.3331   27.2279 N   0  0  0  0  0  0  0  0  0  0  0  0
   -0.3130  -10.0605   15.0823 C   0  0  0  0  0  0  0  0  0  0  0  0
    9.9219   -5.8167   18.4150 C   0  0  0  0  0  0  0  0  0  0  0  0
    8.2192   -2.6752   25.7116 N   0  0  0  0  0  0  0  0  0  0  0  0
    4.1723   -9.8641   17.7665 N   0  0  0  0  0  0  0  0  0  0  0  0
   -0.6563  -11.4321   15.2655 C   0  0  0  0  0  0  0  0  0  0  0  0
    3.3265   -8.3665   16.2569 C   0  0  0  0  0  0  0  0  0  0  0  0
   -1.7803  -11.4512   13.2293 C   0  0  0  0  0  0  0  0  0  0  0  0
    9.5931   -3.1923   25.5450 N   0  0  0  0  0  0  0  0  0  0  0  0
    1.0303  -10.6622   17.7626 N   0  0  0  0  0  0  0  0  0  0  0  0
    6.2234   -7.9591   17.0268 C   0  0  0  0  0  0  0  0  0  0  0  0
   -1.3959  -12.1084   14.3588 C   0  0  0  0  0  0  0  0  0  0  0  0
    2.6071   -9.2262   16.7676 C   0  0  0  0  0  0  0  0  0  0  0  0
   10.5857   -3.6977   16.8294 C   0  0  0  0  0  0  0  0  0  0  0  0
    7.5132   -7.6147   17.5649 C   0  0  0  0  0  0  0  0  0  0  0  0
    4.7824   -9.5383   17.6453 C   0  0  0  0  0  0  0  0  0  0  0  0
    6.6052   -8.7489   17.8841 C   0  0  0  0  0  0  0  0  0  0  0  0
   10.9069   -4.8932   18.7884 C   0  0  0  0  0  0  0  0  0  0  0  0
   -0.6711   -9.4637   13.9022 C   0  0  0  0  0  0  0  0  0  0  0  0
    7.1175   -6.0728   15.8459 C   0  0  0  0  0  0  0  0  0  0  0  0
    8.0732   -6.3643   16.8559 C   0  0  0  0  0  0  0  0  0  0  0  0
    5.8070   -7.0277   15.8658 C   0  0  0  0  0  0  0  0  0  0  0  0
   11.1824   -3.8552   18.0040 C   0  0  0  0  0  0  0  0  0  0  0  0
    2.9145   -7.4873   15.4748 O   0  0  0  0  0  0  0  0  0  0  0  0
    7.5893   -3.4473   26.7063 C   0  0  0  0  0  0  0  0  0  0  0  0
    9.5643   -4.5304   16.4340 C   0  0  0  0  0  0  0  0  0  0  0  0
    2.0068  -11.1391   18.4827 C   0  0  0  0  0  0  0  0  0  0  0  0
    1.3617   -9.7107   16.8490 N   0  0  0  0  0  0  0  0  0  0  0  0
   -1.4325  -10.1712   12.9809 C   0  0  0  0  0  0  0  0  0  0  0  0
  1 10  4  0
  1 32  4  0
  2  8  4  0
  2 26  1  0
  2 31  4  0
  3  7  1  0
  3 33  1  0
  4  6  4  0
  4 14  4  0
  5 12  4  0
  5 21  4  0
  6 30  4  0
  7 11  4  0
  7 24  4  0
  8 23  4  0
  9 14  4  0
  9 30  4  0
 10 18  4  0
 10 21  4  0
 11 17  4  0
 12 18  4  0
 12 29  2  0
 13 17  4  0
 13 34  4  0
 15 32  4  0
 15 33  4  0
 16 20  1  0
 16 22  4  0
 16 27  4  0
 18 33  4  0
 19 28  4  0
 19 31  4  0
 20 22  4  0
 20 26  1  0
 21 22  4  0
 23 28  4  0
 24 34  4  0
 25 26  2  0
 25 27  1  0
M  END
$$$$

 Created by Python create_sdf_string function

 34 67  0  0  0  0  0  0  0  0999 V2000
    3.1950  -10.4144   18.1222 C   0  0  0  0  0  0  0  0  0  0  0  0
    9.0821   -5.0309   17.5077 C   0  0  0  0  0  0  0  0  0  0  0  0
    0.5703   -9.0710   16.1744 C   0  0  0  0  0  0  0  0  0  0  0  0
    9.8125   -4.0321   26.5498 C   0  0  0  0  0  0  0  0  0  0  0  0
    5.2494   -7.9261   17.5159 C   0  0  0  0  0  0  0  0  0  0  0  0
    8.1645   -4.0461   27.2744 N   0  0  0  0  0  0  0  0  0  0  0  0
   -0.2057  -10.3721   14.8237 C   0  0  0  0  0  0  0  0  0  0  0  0
    9.4769   -5.7625   18.4355 C   0  0  0  0  0  0  0  0  0  0  0  0
    8.3732   -2.7497   25.7282 N   0  0  0  0  0  0  0  0  0  0  0  0
   -0.4332  -11.3776   15.3162 C   0  0  0  0  0  0  0  0  0  0  0  0
   -1.8033  -11.5812   13.5812 C   0  0  0  0  0  0  0  0  0  0  0  0
    9.7106   -3.1138   25.6599 N   0  0  0  0  0  0  0  0  0  0  0  0
    0.6317  -10.6926   17.6803 N   0  0  0  0  0  0  0  0  0  0  0  0
   -1.2748  -12.1045   14.4714 N   0  0  0  0  0  0  0  0  0  0  0  0
   10.5477   -3.8878   16.8948 C   0  0  0  0  0  0  0  0  0  0  0  0
    8.2576   -7.7732   18.1772 C   0  0  0  0  0  0  0  0  0  0  0  0
    6.4783   -8.8755   18.1042 C   0  0  0  0  0  0  0  0  0  0  0  0
   11.1674   -4.6504   18.8252 C   0  0  0  0  0  0  0  0  0  0  0  0
   -0.7266   -9.6430   13.7092 C   0  0  0  0  0  0  0  0  0  0  0  0
    6.6421   -5.6379   15.9629 C   0  0  0  0  0  0  0  0  0  0  0  0
    8.2550   -6.5385   16.8064 C   0  0  0  0  0  0  0  0  0  0  0  0
    6.6240   -6.8618   16.3064 C   0  0  0  0  0  0  0  0  0  0  0  0
   11.3316   -3.6719   17.8571 P   0  0  0  0  0  0  0  0  0  0  0  0
    2.7587   -7.7540   15.6345 O   0  0  0  0  0  0  0  0  0  0  0  0
    7.6961   -3.5226   26.7417 C   0  0  0  0  0  0  0  0  0  0  0  0
    9.4571   -4.5206   16.4616 F   0  0  0  0  0  0  0  0  0  0  0  0
    2.1866  -11.3119   18.2618 F   0  0  0  0  0  0  0  0  0  0  0  0
    0.9070   -9.7691   16.4268 N   0  0  0  0  0  0  0  0  0  0  0  0
    3.1550   -9.3545   17.6248 He  0  0  0  0  0  0  0  0  0  0  0  0
    2.5788   -8.1421   16.7999 He  0  0  0  0  0  0  0  0  0  0  0  0
    6.6953   -7.6762   17.4902 He  0  0  0  0  0  0  0  0  0  0  0  0
    2.4980   -8.9802   16.6482 He  0  0  0  0  0  0  0  0  0  0  0  0
    5.1807   -8.3763   18.3764 He  0  0  0  0  0  0  0  0  0  0  0  0
   -1.8902  -10.0517   12.5781 He  0  0  0  0  0  0  0  0  0  0  0  0
  1  4  2  0
  1  6  1  0
  1 14  3  0
  1 18  1  0
  1 27  4  0
  2  8  4  0
  2 11  1  0
  2 23  4  0
  2 26  4  0
  3  4  3  0
  3  6  3  0
  3  7  1  0
  3  8  1  0
  3 14  4  0
  3 28  1  0
  4  6  4  0
  4 12  1  0
  4 25  4  0
  5 11  2  0
  5 12  2  0
  5 15  3  0
  5 21  3  0
  6 14  2  0
  6 16  2  0
  6 19  2  0
  6 21  1  0
  6 23  4  0
  6 25  1  0
  7 10  3  0
  7 12  1  0
  7 15  1  0
  7 19  4  0
  7 21  3  0
  7 22  1  0
  8 11  3  0
  8 18  4  0
  8 19  1  0
  8 24  3  0
  8 25  1  0
  9 22  2  0
  9 25  4  0
 10 14  4  0
 11 12  2  0
 11 14  4  0
 11 22  3  0
 12 13  3  0
 12 14  1  0
 13 16  4  0
 14 20  3  0
 15 23  4  0
 15 26  4  0
 15 27  4  0
 16 17  4  0
 16 18  4  0
 16 23  4  0
 16 24  4  0
 16 25  1  0
 18 23  4  0
 18 24  2  0
 18 25  4  0
 19 23  2  0
 20 21  2  0
 20 22  1  0
 21 22  4  0
 23 28  1  0
 24 26  2  0
 25 28  1  0
M  END
$$$$

 Created by Python create_sdf_string function

 34 39  0  0  0  0  0  0  0  0999 V2000
    3.1719  -10.8348   18.5413 C   0  0  0  0  0  0  0  0  0  0  0  0
    9.2413   -5.6075   17.3652 C   0  0  0  0  0  0  0  0  0  0  0  0
    0.4848   -9.2595   15.8724 C   0  0  0  0  0  0  0  0  0  0  0  0
    9.7761   -4.1025   26.6468 C   0  0  0  0  0  0  0  0  0  0  0  0
    4.7395   -8.0100   17.0911 C   0  0  0  0  0  0  0  0  0  0  0  0
    8.4731   -4.1748   27.2465 N   0  0  0  0  0  0  0  0  0  0  0  0
   -0.2685  -10.1160   14.9625 C   0  0  0  0  0  0  0  0  0  0  0  0
    9.9694   -5.6329   18.5412 C   0  0  0  0  0  0  0  0  0  0  0  0
    8.3297   -2.6073   25.6616 N   0  0  0  0  0  0  0  0  0  0  0  0
    3.4783   -9.7134   17.8060 C   0  0  0  0  0  0  0  0  0  0  0  0
   -0.6075  -11.4627   15.2142 C   0  0  0  0  0  0  0  0  0  0  0  0
    2.9565   -7.9829   16.2890 C   0  0  0  0  0  0  0  0  0  0  0  0
   -1.8927  -11.5804   13.3279 C   0  0  0  0  0  0  0  0  0  0  0  0
    9.6795   -3.1359   25.6552 N   0  0  0  0  0  0  0  0  0  0  0  0
    0.9704  -10.7080   17.6966 N   0  0  0  0  0  0  0  0  0  0  0  0
    6.2251   -7.7477   17.3308 C   0  0  0  0  0  0  0  0  0  0  0  0
   -1.4295  -12.1689   14.4342 C   0  0  0  0  0  0  0  0  0  0  0  0
    2.5249   -9.1520   16.9389 C   0  0  0  0  0  0  0  0  0  0  0  0
   10.5386   -3.6804   16.7489 C   0  0  0  0  0  0  0  0  0  0  0  0
    8.1432   -7.8216   17.9481 C   0  0  0  0  0  0  0  0  0  0  0  0
    4.6790   -9.0619   17.8494 N   0  0  0  0  0  0  0  0  0  0  0  0
    6.7372   -8.3789   17.9981 C   0  0  0  0  0  0  0  0  0  0  0  0
   10.8836   -4.6156   18.8374 C   0  0  0  0  0  0  0  0  0  0  0  0
   -0.7439   -9.5962   13.7991 C   0  0  0  0  0  0  0  0  0  0  0  0
    7.0601   -6.1089   15.8301 C   0  0  0  0  0  0  0  0  0  0  0  0
    8.0938   -6.5514   17.0742 C   0  0  0  0  0  0  0  0  0  0  0  0
    6.6509   -6.7488   16.4916 C   0  0  0  0  0  0  0  0  0  0  0  0
   11.1825   -3.6817   17.9203 C   0  0  0  0  0  0  0  0  0  0  0  0
    2.6818   -7.2360   15.5455 O   0  0  0  0  0  0  0  0  0  0  0  0
    7.5736   -3.3350   26.5860 C   0  0  0  0  0  0  0  0  0  0  0  0
    9.5168   -4.5656   16.4775 C   0  0  0  0  0  0  0  0  0  0  0  0
    1.9170  -11.2701   18.5015 C   0  0  0  0  0  0  0  0  0  0  0  0
    1.3307   -9.7165   16.8322 N   0  0  0  0  0  0  0  0  0  0  0  0
   -1.5624  -10.3480   12.9787 C   0  0  0  0  0  0  0  0  0  0  0  0
  1 10  4  0
  1 32  4  0
  2  8  4  0
  2 26  1  0
  2 31  4  0
  3  7  1  0
  3 33  1  0
  4  6  4  0
  4 14  4  0
  5 12  4  0
  5 16  4  0
  5 21  4  0
  6 30  4  0
  7 11  4  0
  7 24  4  0
  8 23  4  0
  9 14  4  0
  9 30  4  0
 10 18  4  0
 10 21  4  0
 11 17  4  0
 12 18  4  0
 12 29  1  0
 13 17  4  0
 13 34  4  0
 15 32  4  0
 15 33  4  0
 16 22  4  0
 16 27  4  0
 18 33  4  0
 19 28  4  0
 19 31  4  0
 20 22  4  0
 20 26  4  0
 23 28  4  0
 24 34  4  0
 25 26  4  0
 25 27  4  0
 26 27  4  0
M  END
$$$$

 Created by Python create_sdf_string function

 34 57  0  0  0  0  0  0  0  0999 V2000
    3.1794  -11.1604   18.3584 C   0  0  0  0  0  0  0  0  0  0  0  0
    9.0643   -5.7411   17.3349 C   0  0  0  0  0  0  0  0  0  0  0  0
    0.5460   -9.3863   16.0233 C   0  0  0  0  0  0  0  0  0  0  0  0
    9.6548   -3.8254   26.7508 C   0  0  0  0  0  0  0  0  0  0  0  0
    5.8747   -8.5860   16.9883 B   0  0  0  0  0  0  0  0  0  0  0  0
    8.6482   -4.2111   27.0537 N   0  0  0  0  0  0  0  0  0  0  0  0
   -0.1014  -10.4224   14.9051 F   0  0  0  0  0  0  0  0  0  0  0  0
    8.5339   -2.6286   25.6156 N   0  0  0  0  0  0  0  0  0  0  0  0
    3.1413  -10.1678   18.0895 O   0  0  0  0  0  0  0  0  0  0  0  0
   -0.6790  -11.2402   15.4494 C   0  0  0  0  0  0  0  0  0  0  0  0
    2.1621   -8.4241   16.1029 S   0  0  0  0  0  0  0  0  0  0  0  0
   -2.1099  -11.6536   13.4480 C   0  0  0  0  0  0  0  0  0  0  0  0
    1.0314  -10.6639   17.5908 N   0  0  0  0  0  0  0  0  0  0  0  0
   -1.3618  -12.4079   14.4595 C   0  0  0  0  0  0  0  0  0  0  0  0
    2.9625   -9.2634   16.7049 C   0  0  0  0  0  0  0  0  0  0  0  0
    8.3288   -7.2493   18.4350 C   0  0  0  0  0  0  0  0  0  0  0  0
    6.6936   -8.3346   18.2148 C   0  0  0  0  0  0  0  0  0  0  0  0
   10.5468   -4.7822   18.8613 C   0  0  0  0  0  0  0  0  0  0  0  0
   -0.6572   -9.5222   13.1250 C   0  0  0  0  0  0  0  0  0  0  0  0
    7.2915   -6.5880   15.9120 C   0  0  0  0  0  0  0  0  0  0  0  0
    7.8623   -6.4806   16.8478 C   0  0  0  0  0  0  0  0  0  0  0  0
    7.0204   -7.0202   16.8521 N   0  0  0  0  0  0  0  0  0  0  0  0
   10.9441   -3.7168   17.9347 C   0  0  0  0  0  0  0  0  0  0  0  0
    2.5244   -7.2050   15.9222 O   0  0  0  0  0  0  0  0  0  0  0  0
    7.5791   -3.3469   26.5307 O   0  0  0  0  0  0  0  0  0  0  0  0
    9.6866   -4.4053   16.3088 C   0  0  0  0  0  0  0  0  0  0  0  0
    2.0302  -11.4748   18.5846 C   0  0  0  0  0  0  0  0  0  0  0  0
    1.3238   -9.6471   16.7715 N   0  0  0  0  0  0  0  0  0  0  0  0
   -1.1863  -10.4492   13.0498 C   0  0  0  0  0  0  0  0  0  0  0  0
   10.3090   -5.4571   18.5497 He  0  0  0  0  0  0  0  0  0  0  0  0
    9.7453   -3.0962   25.7578 He  0  0  0  0  0  0  0  0  0  0  0  0
    5.7443   -7.4939   16.5734 He  0  0  0  0  0  0  0  0  0  0  0  0
   10.3446   -3.7862   16.5511 He  0  0  0  0  0  0  0  0  0  0  0  0
    4.4451   -9.1814   17.9735 He  0  0  0  0  0  0  0  0  0  0  0  0
  1  9  4  0
  1 13  3  0
  1 27  4  0
  2 11  4  0
  2 21  3  0
  2 26  4  0
  3 11  4  0
  3 20  3  0
  3 28  1  0
  4  6  4  0
  4 22  2  0
  4 23  1  0
  5  6  4  0
  5 15  2  0
  5 17  4  0
  5 20  4  0
  5 21  3  0
  5 25  4  0
  7  9  3  0
  7 22  3  0
  8  9  4  0
  8 18  3  0
  8 25  4  0
  9 14  2  0
  9 18  4  0
  9 20  4  0
  9 27  1  0
 10 11  2  0
 10 12  2  0
 10 14  4  0
 10 24  4  0
 10 28  3  0
 11 22  1  0
 11 24  4  0
 11 26  1  0
 12 14  4  0
 12 29  4  0
 13 27  4  0
 13 28  4  0
 14 15  3  0
 14 29  2  0
 15 16  4  0
 15 28  4  0
 16 17  4  0
 16 20  1  0
 16 21  4  0
 16 22  2  0
 18 23  4  0
 19 22  1  0
 19 27  3  0
 19 29  4  0
 20 21  4  0
 20 22  1  0
 24 26  1  0
 26 27  1  0
 26 28  3  0
 27 29  2  0
M  END
$$$$

 Created by Python create_sdf_string function

 34 38  0  0  0  0  0  0  0  0999 V2000
    3.2516  -10.9532   18.5788 C   0  0  0  0  0  0  0  0  0  0  0  0
    9.2122   -5.6241   17.3254 C   0  0  0  0  0  0  0  0  0  0  0  0
    0.5487   -9.3324   15.8141 C   0  0  0  0  0  0  0  0  0  0  0  0
    9.8667   -3.9804   26.7386 C   0  0  0  0  0  0  0  0  0  0  0  0
    5.3636   -8.3365   17.2213 C   0  0  0  0  0  0  0  0  0  0  0  0
    8.5784   -4.2315   27.1954 N   0  0  0  0  0  0  0  0  0  0  0  0
   -0.2251  -10.1911   14.9000 C   0  0  0  0  0  0  0  0  0  0  0  0
    9.9071   -5.5712   18.5190 C   0  0  0  0  0  0  0  0  0  0  0  0
    8.4031   -2.5699   25.5944 N   0  0  0  0  0  0  0  0  0  0  0  0
    3.5486   -9.9266   17.7487 C   0  0  0  0  0  0  0  0  0  0  0  0
   -0.6607  -11.4424   15.3089 C   0  0  0  0  0  0  0  0  0  0  0  0
    3.0922   -8.1119   16.2074 C   0  0  0  0  0  0  0  0  0  0  0  0
   -1.8461  -11.6789   13.3188 C   0  0  0  0  0  0  0  0  0  0  0  0
    9.7403   -2.9969   25.7389 N   0  0  0  0  0  0  0  0  0  0  0  0
    1.0495  -10.8451   17.6902 N   0  0  0  0  0  0  0  0  0  0  0  0
    4.9410   -7.5189   16.2738 C   0  0  0  0  0  0  0  0  0  0  0  0
   -1.4947  -12.1763   14.5566 C   0  0  0  0  0  0  0  0  0  0  0  0
    2.7064   -9.2868   16.9084 C   0  0  0  0  0  0  0  0  0  0  0  0
   10.4632   -3.6254   16.6858 C   0  0  0  0  0  0  0  0  0  0  0  0
    7.8449   -7.5871   17.9671 C   0  0  0  0  0  0  0  0  0  0  0  0
    4.8290   -9.3001   17.7138 N   0  0  0  0  0  0  0  0  0  0  0  0
    6.6576   -8.3033   18.0213 C   0  0  0  0  0  0  0  0  0  0  0  0
   10.8469   -4.5090   18.7895 C   0  0  0  0  0  0  0  0  0  0  0  0
   -0.5484   -9.7083   13.6548 C   0  0  0  0  0  0  0  0  0  0  0  0
    7.2224   -6.4605   16.0380 C   0  0  0  0  0  0  0  0  0  0  0  0
    8.2017   -6.5376   17.1155 C   0  0  0  0  0  0  0  0  0  0  0  0
    6.0364   -7.0404   15.8903 C   0  0  0  0  0  0  0  0  0  0  0  0
   11.0373   -3.5580   17.8616 C   0  0  0  0  0  0  0  0  0  0  0  0
    2.7615   -7.2214   15.7615 O   0  0  0  0  0  0  0  0  0  0  0  0
    7.6312   -3.3623   26.4679 C   0  0  0  0  0  0  0  0  0  0  0  0
    9.5018   -4.6423   16.3911 C   0  0  0  0  0  0  0  0  0  0  0  0
    1.9371  -11.3858   18.5850 C   0  0  0  0  0  0  0  0  0  0  0  0
    1.4255   -9.8543   16.8505 N   0  0  0  0  0  0  0  0  0  0  0  0
   -1.4142  -10.4926   12.8561 C   0  0  0  0  0  0  0  0  0  0  0  0
  1 10  4  0
  1 32  4  0
  2  8  4  0
  2 26  1  0
  2 31  4  0
  3  7  1  0
  3 33  1  0
  4  6  4  0
  4 14  4  0
  5 16  4  0
  5 21  1  0
  5 22  4  0
  6 30  4  0
  7 11  4  0
  7 24  4  0
  8 23  4  0
  9 14  4  0
  9 30  4  0
 10 18  4  0
 10 21  4  0
 11 17  4  0
 12 16  4  0
 12 18  4  0
 12 29  4  0
 13 17  4  0
 13 34  4  0
 15 32  4  0
 15 33  4  0
 16 27  4  0
 18 33  4  0
 19 28  4  0
 19 31  4  0
 20 22  4  0
 20 26  4  0
 23 28  4  0
 24 34  4  0
 25 26  4  0
 25 27  4  0
M  END
$$$$

 Created by Python create_sdf_string function

 34 67  0  0  0  0  0  0  0  0999 V2000
    2.9158  -11.0203   18.4929 C   0  0  0  0  0  0  0  0  0  0  0  0
    9.3141   -5.7644   17.3404 C   0  0  0  0  0  0  0  0  0  0  0  0
    0.8282   -9.4511   15.8814 S   0  0  0  0  0  0  0  0  0  0  0  0
   10.2247   -4.3786   26.9276 C   0  0  0  0  0  0  0  0  0  0  0  0
    8.6517   -4.4778   27.4434 N   0  0  0  0  0  0  0  0  0  0  0  0
   -0.3278  -10.1799   15.0500 C   0  0  0  0  0  0  0  0  0  0  0  0
    8.2138   -2.6603   25.9263 N   0  0  0  0  0  0  0  0  0  0  0  0
    3.6966  -10.1477   18.4416 N   0  0  0  0  0  0  0  0  0  0  0  0
   -0.9174  -11.4831   15.5595 C   0  0  0  0  0  0  0  0  0  0  0  0
    3.1999   -8.1839   16.8476 C   0  0  0  0  0  0  0  0  0  0  0  0
   -1.7856  -11.5795   13.4133 C   0  0  0  0  0  0  0  0  0  0  0  0
    9.6846   -2.8469   25.9376 N   0  0  0  0  0  0  0  0  0  0  0  0
    1.2025  -10.7106   17.9842 N   0  0  0  0  0  0  0  0  0  0  0  0
   -1.7654  -12.4143   14.8034 C   0  0  0  0  0  0  0  0  0  0  0  0
    2.4315   -9.2390   16.8507 C   0  0  0  0  0  0  0  0  0  0  0  0
   10.5567   -3.6080   16.7468 C   0  0  0  0  0  0  0  0  0  0  0  0
    5.0251   -9.7873   17.2306 N   0  0  0  0  0  0  0  0  0  0  0  0
    6.4603   -8.3112   17.9352 C   0  0  0  0  0  0  0  0  0  0  0  0
   11.0531   -4.5691   18.9885 C   0  0  0  0  0  0  0  0  0  0  0  0
   -0.6599   -9.5025   13.9592 C   0  0  0  0  0  0  0  0  0  0  0  0
    7.4238   -7.0636   15.8822 C   0  0  0  0  0  0  0  0  0  0  0  0
    8.1504   -6.7708   17.2545 C   0  0  0  0  0  0  0  0  0  0  0  0
   10.8122   -3.6519   17.8595 C   0  0  0  0  0  0  0  0  0  0  0  0
    2.6116   -6.9408   15.8996 O   0  0  0  0  0  0  0  0  0  0  0  0
    7.9441   -3.7910   26.3621 C   0  0  0  0  0  0  0  0  0  0  0  0
    9.4517   -4.7830   16.3293 C   0  0  0  0  0  0  0  0  0  0  0  0
    2.0200  -11.4614   18.7835 C   0  0  0  0  0  0  0  0  0  0  0  0
    1.5364  -10.1725   17.1623 N   0  0  0  0  0  0  0  0  0  0  0  0
   -1.4538  -10.2294   12.8359 C   0  0  0  0  0  0  0  0  0  0  0  0
    4.9662   -8.0466   17.1073 He  0  0  0  0  0  0  0  0  0  0  0  0
    9.9958   -5.5293   19.0058 He  0  0  0  0  0  0  0  0  0  0  0  0
    4.9846   -7.4706   16.2281 He  0  0  0  0  0  0  0  0  0  0  0  0
    7.7011   -6.7274   17.8315 He  0  0  0  0  0  0  0  0  0  0  0  0
    6.5249   -7.3965   16.0530 He  0  0  0  0  0  0  0  0  0  0  0  0
  1 10  3  0
  1 18  2  0
  1 27  4  0
  1 28  1  0
  2 10  2  0
  2 17  1  0
  2 22  1  0
  2 26  4  0
  3  6  1  0
  3  8  1  0
  3 28  1  0
  4  5  4  0
  4  8  2  0
  4 12  4  0
  5 17  2  0
  5 22  1  0
  5 25  4  0
  6  9  4  0
  6 19  3  0
  6 20  4  0
  7  8  2  0
  7 12  4  0
  7 18  3  0
  7 20  2  0
  7 25  4  0
  8  9  1  0
  8 15  4  0
  8 16  3  0
  8 25  2  0
  9 10  3  0
  9 14  4  0
 10 12  3  0
 10 15  4  0
 10 17  1  0
 10 22  2  0
 10 23  3  0
 10 24  4  0
 11 14  4  0
 11 27  1  0
 11 29  4  0
 12 17  3  0
 12 18  3  0
 12 24  1  0
 13 27  1  0
 13 28  4  0
 14 16  1  0
 14 18  1  0
 15 16  4  0
 15 17  4  0
 15 27  2  0
 15 28  4  0
 16 23  4  0
 16 24  3  0
 16 26  4  0
 17 18  1  0
 17 20  4  0
 17 27  3  0
 17 28  3  0
 19 21  4  0
 19 22  4  0
 19 23  4  0
 19 25  4  0
 19 29  3  0
 20 28  4  0
 20 29  4  0
 21 22  4  0
 21 23  2  0
M  END
$$$$

 Created by Python create_sdf_string function

 34 38  0  0  0  0  0  0  0  0999 V2000
    3.2829  -11.0978   18.6988 C   0  0  0  0  0  0  0  0  0  0  0  0
    9.2274   -5.6623   17.3985 C   0  0  0  0  0  0  0  0  0  0  0  0
    0.6436   -9.4148   15.9635 N   0  0  0  0  0  0  0  0  0  0  0  0
   10.0254   -4.0744   26.8548 C   0  0  0  0  0  0  0  0  0  0  0  0
    4.9709   -8.1465   16.8710 C   0  0  0  0  0  0  0  0  0  0  0  0
    8.7278   -4.5403   27.2663 N   0  0  0  0  0  0  0  0  0  0  0  0
   -0.3043  -10.2066   15.1012 C   0  0  0  0  0  0  0  0  0  0  0  0
    9.8824   -5.5752   18.6518 C   0  0  0  0  0  0  0  0  0  0  0  0
    8.3423   -2.7084   25.8288 N   0  0  0  0  0  0  0  0  0  0  0  0
    3.6313  -10.0403   17.9060 C   0  0  0  0  0  0  0  0  0  0  0  0
   -0.8492  -11.4520   15.4931 C   0  0  0  0  0  0  0  0  0  0  0  0
    3.1760   -8.2344   16.4385 C   0  0  0  0  0  0  0  0  0  0  0  0
   -1.9166  -11.5946   13.4205 C   0  0  0  0  0  0  0  0  0  0  0  0
    9.8188   -2.9247   25.9768 N   0  0  0  0  0  0  0  0  0  0  0  0
    1.0697  -10.8675   17.8308 N   0  0  0  0  0  0  0  0  0  0  0  0
    4.8548   -7.7072   16.1801 N   0  0  0  0  0  0  0  0  0  0  0  0
   -1.6451  -12.1395   14.6523 C   0  0  0  0  0  0  0  0  0  0  0  0
    2.7221   -9.4169   17.0681 C   0  0  0  0  0  0  0  0  0  0  0  0
   10.4596   -3.7147   16.7143 C   0  0  0  0  0  0  0  0  0  0  0  0
    7.5931   -7.4053   18.0956 C   0  0  0  0  0  0  0  0  0  0  0  0
    4.8554   -9.4677   17.9553 N   0  0  0  0  0  0  0  0  0  0  0  0
    6.3215   -8.0312   17.9025 C   0  0  0  0  0  0  0  0  0  0  0  0
   10.7742   -4.5141   18.9018 C   0  0  0  0  0  0  0  0  0  0  0  0
   -0.6448   -9.6685   13.8862 C   0  0  0  0  0  0  0  0  0  0  0  0
    7.4786   -6.7604   15.9379 C   0  0  0  0  0  0  0  0  0  0  0  0
    8.2455   -6.5812   17.1572 C   0  0  0  0  0  0  0  0  0  0  0  0
    6.3001   -7.1705   15.7763 C   0  0  0  0  0  0  0  0  0  0  0  0
   11.0133   -3.6214   17.9370 C   0  0  0  0  0  0  0  0  0  0  0  0
    2.8911   -7.3123   15.8964 O   0  0  0  0  0  0  0  0  0  0  0  0
    7.7354   -3.7484   26.5679 C   0  0  0  0  0  0  0  0  0  0  0  0
    9.5605   -4.7286   16.4204 C   0  0  0  0  0  0  0  0  0  0  0  0
    1.9274  -11.4557   18.7307 C   0  0  0  0  0  0  0  0  0  0  0  0
    1.4807   -9.9340   16.9590 C   0  0  0  0  0  0  0  0  0  0  0  0
   -1.4549  -10.3715   13.0289 C   0  0  0  0  0  0  0  0  0  0  0  0
  1 10  4  0
  1 32  4  0
  2  8  4  0
  2 26  1  0
  2 31  4  0
  3  7  1  0
  3 33  1  0
  4  6  4  0
  4 14  4  0
  5 16  1  0
  5 21  4  0
  5 22  4  0
  6 30  4  0
  7 11  4  0
  7 24  4  0
  8 23  4  0
  9 14  4  0
  9 30  4  0
 10 18  4  0
 10 21  4  0
 11 17  4  0
 12 16  4  0
 12 18  4  0
 12 29  2  0
 13 17  4  0
 13 34  4  0
 15 32  4  0
 15 33  4  0
 16 27  4  0
 18 33  4  0
 19 28  4  0
 19 31  4  0
 20 22  4  0
 20 26  4  0
 23 28  4  0
 24 34  4  0
 25 26  4  0
 25 27  4  0
M  END
$$$$

 Created by Python create_sdf_string function

 34 76  0  0  0  0  0  0  0  0999 V2000
    3.3521  -11.1257   18.7396 C   0  0  0  0  0  0  0  0  0  0  0  0
    9.4805   -5.6967   17.1324 C   0  0  0  0  0  0  0  0  0  0  0  0
    0.4146   -9.3584   15.8855 N   0  0  0  0  0  0  0  0  0  0  0  0
    9.7728   -4.1080   26.7833 C   0  0  0  0  0  0  0  0  0  0  0  0
    5.3297   -8.5443   17.2295 C   0  0  0  0  0  0  0  0  0  0  0  0
    8.8472   -4.4913   27.5609 N   0  0  0  0  0  0  0  0  0  0  0  0
   -0.2784   -9.8180   15.1529 C   0  0  0  0  0  0  0  0  0  0  0  0
    9.6515   -5.7218   18.5309 C   0  0  0  0  0  0  0  0  0  0  0  0
    8.2134   -2.7309   25.7011 N   0  0  0  0  0  0  0  0  0  0  0  0
   -0.8413  -11.6174   15.1857 C   0  0  0  0  0  0  0  0  0  0  0  0
    3.1613   -8.2959   16.4960 C   0  0  0  0  0  0  0  0  0  0  0  0
   -1.7831  -11.6738   13.6226 C   0  0  0  0  0  0  0  0  0  0  0  0
    1.3449  -11.0978   17.7668 F   0  0  0  0  0  0  0  0  0  0  0  0
   -1.5879  -12.3159   14.6737 C   0  0  0  0  0  0  0  0  0  0  0  0
    2.6062   -9.4351   17.1056 C   0  0  0  0  0  0  0  0  0  0  0  0
   10.4059   -3.5156   16.5921 C   0  0  0  0  0  0  0  0  0  0  0  0
    8.0071   -7.6179   18.4015 O   0  0  0  0  0  0  0  0  0  0  0  0
    4.7330   -8.6136   18.1922 N   0  0  0  0  0  0  0  0  0  0  0  0
    6.3795   -8.0685   17.9938 C   0  0  0  0  0  0  0  0  0  0  0  0
   10.8020   -4.4862   19.0257 C   0  0  0  0  0  0  0  0  0  0  0  0
   -0.4762   -9.4822   13.3456 C   0  0  0  0  0  0  0  0  0  0  0  0
    7.3537   -6.9225   15.8038 C   0  0  0  0  0  0  0  0  0  0  0  0
    8.3259   -6.6100   17.4427 C   0  0  0  0  0  0  0  0  0  0  0  0
    6.2265   -7.1839   15.2480 C   0  0  0  0  0  0  0  0  0  0  0  0
   11.1004   -3.4898   18.0534 C   0  0  0  0  0  0  0  0  0  0  0  0
    2.7627   -6.8761   15.9946 O   0  0  0  0  0  0  0  0  0  0  0  0
    7.8630   -3.1636   26.4483 C   0  0  0  0  0  0  0  0  0  0  0  0
    9.4081   -4.8136   16.6193 C   0  0  0  0  0  0  0  0  0  0  0  0
    1.9285  -11.9155   18.8321 C   0  0  0  0  0  0  0  0  0  0  0  0
    1.6101   -9.6841   17.3819 C   0  0  0  0  0  0  0  0  0  0  0  0
   -1.3802  -10.4901   12.6137 C   0  0  0  0  0  0  0  0  0  0  0  0
    3.7877  -10.4139   17.1426 He  0  0  0  0  0  0  0  0  0  0  0  0
   10.1778   -2.6745   25.7370 He  0  0  0  0  0  0  0  0  0  0  0  0
    4.3734   -8.1021   16.4093 He  0  0  0  0  0  0  0  0  0  0  0  0
  1 15  3  0
  1 29  2  0
  2  8  4  0
  2  9  3  0
  2 23  1  0
  2 26  1  0
  2 28  4  0
  3  7  1  0
  3  8  4  0
  4 11  2  0
  4 20  3  0
  4 24  2  0
  4 25  4  0
  5 11  3  0
  5 12  4  0
  5 18  1  0
  5 19  4  0
  6 10  1  0
  6 27  4  0
  6 31  2  0
  7 10  4  0
  7 18  1  0
  7 21  4  0
  7 22  3  0
  8 17  1  0
  8 18  1  0
  8 20  4  0
  8 22  4  0
  8 24  1  0
  9 15  2  0
  9 22  1  0
  9 24  2  0
  9 27  4  0
  9 29  4  0
 10 12  2  0
 10 14  4  0
 10 17  1  0
 11 13  4  0
 11 15  4  0
 11 17  2  0
 11 18  1  0
 11 25  2  0
 11 26  2  0
 11 28  2  0
 12 14  4  0
 12 25  1  0
 12 30  4  0
 12 31  4  0
 13 21  4  0
 13 27  3  0
 13 29  4  0
 13 30  4  0
 14 17  2  0
 14 30  1  0
 15 24  3  0
 16 24  1  0
 16 25  4  0
 16 27  3  0
 16 28  4  0
 17 19  4  0
 17 22  2  0
 17 24  2  0
 17 28  3  0
 17 30  2  0
 18 27  4  0
 19 26  1  0
 20 25  4  0
 21 24  2  0
 21 27  1  0
 21 31  4  0
 22 23  4  0
 22 24  4  0
 22 31  4  0
 23 25  4  0
 23 26  2  0
 24 31  4  0
M  END
$$$$

 Created by Python create_sdf_string function

 34 38  0  0  0  0  0  0  0  0999 V2000
    3.2971  -11.0681   18.6634 C   0  0  0  0  0  0  0  0  0  0  0  0
    9.2016   -5.6744   17.3666 C   0  0  0  0  0  0  0  0  0  0  0  0
    0.5355   -9.4841   16.0185 N   0  0  0  0  0  0  0  0  0  0  0  0
   10.0121   -4.0055   26.7481 C   0  0  0  0  0  0  0  0  0  0  0  0
    5.4479   -8.2890   17.1213 C   0  0  0  0  0  0  0  0  0  0  0  0
    8.7221   -4.2351   27.2856 N   0  0  0  0  0  0  0  0  0  0  0  0
   -0.2260  -10.2070   15.1220 C   0  0  0  0  0  0  0  0  0  0  0  0
    9.8979   -5.5854   18.6077 C   0  0  0  0  0  0  0  0  0  0  0  0
    8.4471   -2.5359   25.7352 N   0  0  0  0  0  0  0  0  0  0  0  0
    3.5455   -9.9353   17.8701 C   0  0  0  0  0  0  0  0  0  0  0  0
   -0.7986  -11.4441   15.4226 C   0  0  0  0  0  0  0  0  0  0  0  0
    3.0892   -8.2490   16.3459 C   0  0  0  0  0  0  0  0  0  0  0  0
   -1.7633  -11.6201   13.3194 C   0  0  0  0  0  0  0  0  0  0  0  0
    9.8641   -2.9442   25.7592 N   0  0  0  0  0  0  0  0  0  0  0  0
    1.0961  -11.0674   17.8361 N   0  0  0  0  0  0  0  0  0  0  0  0
    4.8305   -7.8856   16.3737 N   0  0  0  0  0  0  0  0  0  0  0  0
   -1.5408  -12.1371   14.5743 C   0  0  0  0  0  0  0  0  0  0  0  0
    2.6363   -9.4154   17.0830 C   0  0  0  0  0  0  0  0  0  0  0  0
   10.4243   -3.6637   16.7626 C   0  0  0  0  0  0  0  0  0  0  0  0
    7.6947   -7.5449   18.0795 C   0  0  0  0  0  0  0  0  0  0  0  0
    4.8237   -9.3949   17.7271 N   0  0  0  0  0  0  0  0  0  0  0  0
    6.5047   -8.1560   17.9317 C   0  0  0  0  0  0  0  0  0  0  0  0
   10.7421   -4.5101   18.9046 C   0  0  0  0  0  0  0  0  0  0  0  0
   -0.4738   -9.7417   13.8466 C   0  0  0  0  0  0  0  0  0  0  0  0
    7.3761   -6.6736   16.0298 C   0  0  0  0  0  0  0  0  0  0  0  0
    8.2273   -6.5845   17.1457 C   0  0  0  0  0  0  0  0  0  0  0  0
    6.2222   -7.1403   15.7215 C   0  0  0  0  0  0  0  0  0  0  0  0
   10.9647   -3.5608   17.9974 C   0  0  0  0  0  0  0  0  0  0  0  0
    2.5793   -7.3604   15.8614 O   0  0  0  0  0  0  0  0  0  0  0  0
    7.7710   -3.3868   26.6060 C   0  0  0  0  0  0  0  0  0  0  0  0
    9.5226   -4.6868   16.4602 C   0  0  0  0  0  0  0  0  0  0  0  0
    2.0168  -11.6230   18.6775 C   0  0  0  0  0  0  0  0  0  0  0  0
    1.3876   -9.9759   16.9469 C   0  0  0  0  0  0  0  0  0  0  0  0
   -1.2722  -10.4361   12.9416 C   0  0  0  0  0  0  0  0  0  0  0  0
  1 10  4  0
  1 32  4  0
  2  8  4  0
  2 26  1  0
  2 31  4  0
  3  7  1  0
  3 33  1  0
  4  6  4  0
  4 14  4  0
  5 16  1  0
  5 21  1  0
  5 22  4  0
  6 30  4  0
  7 11  4  0
  7 24  4  0
  8 23  4  0
  9 14  4  0
  9 30  4  0
 10 18  4  0
 10 21  4  0
 11 17  4  0
 12 16  1  0
 12 18  1  0
 12 29  2  0
 13 17  4  0
 13 34  4  0
 15 32  4  0
 15 33  4  0
 16 27  4  0
 18 33  4  0
 19 28  4  0
 19 31  4  0
 20 22  4  0
 20 26  4  0
 23 28  4  0
 24 34  4  0
 25 26  4  0
 25 27  4  0
M  END
$$$$

 Created by Python create_sdf_string function

 34 72  0  0  0  0  0  0  0  0999 V2000
    3.1985  -11.2245   18.6834 C   0  0  0  0  0  0  0  0  0  0  0  0
    8.9847   -5.6025   17.5129 C   0  0  0  0  0  0  0  0  0  0  0  0
    0.2528   -9.6570   16.1190 N   0  0  0  0  0  0  0  0  0  0  0  0
    9.6571   -4.2514   27.0880 C   0  0  0  0  0  0  0  0  0  0  0  0
    5.7338   -7.7913   16.9944 C   0  0  0  0  0  0  0  0  0  0  0  0
    8.4963   -4.3038   27.5125 N   0  0  0  0  0  0  0  0  0  0  0  0
   -0.4003   -9.8460   15.0643 C   0  0  0  0  0  0  0  0  0  0  0  0
    8.5907   -2.7574   25.7687 N   0  0  0  0  0  0  0  0  0  0  0  0
    3.5248   -9.8011   18.1507 S   0  0  0  0  0  0  0  0  0  0  0  0
   -0.7852  -11.7627   15.4091 C   0  0  0  0  0  0  0  0  0  0  0  0
    3.5763   -7.7986   16.4336 C   0  0  0  0  0  0  0  0  0  0  0  0
   10.1362   -2.9416   25.9091 N   0  0  0  0  0  0  0  0  0  0  0  0
    0.8061  -10.9622   17.7835 N   0  0  0  0  0  0  0  0  0  0  0  0
    4.5024   -7.1841   17.3037 N   0  0  0  0  0  0  0  0  0  0  0  0
   -1.4874  -12.2393   14.4646 C   0  0  0  0  0  0  0  0  0  0  0  0
    2.7122   -9.3460   17.1463 C   0  0  0  0  0  0  0  0  0  0  0  0
   10.4257   -3.5454   16.7685 C   0  0  0  0  0  0  0  0  0  0  0  0
    7.2439   -7.3834   18.6406 N   0  0  0  0  0  0  0  0  0  0  0  0
    4.7047   -8.9708   17.8329 F   0  0  0  0  0  0  0  0  0  0  0  0
   10.9451   -4.4963   18.9530 C   0  0  0  0  0  0  0  0  0  0  0  0
    7.9846   -6.8092   17.0853 C   0  0  0  0  0  0  0  0  0  0  0  0
    6.6380   -7.3227   14.7524 C   0  0  0  0  0  0  0  0  0  0  0  0
    2.5629   -7.4854   15.8050 O   0  0  0  0  0  0  0  0  0  0  0  0
    7.8388   -3.1746   26.3860 C   0  0  0  0  0  0  0  0  0  0  0  0
    9.5675   -4.3636   16.2420 C   0  0  0  0  0  0  0  0  0  0  0  0
    1.9664  -11.8495   18.7222 C   0  0  0  0  0  0  0  0  0  0  0  0
    1.4641   -9.7073   16.8720 C   0  0  0  0  0  0  0  0  0  0  0  0
   -1.2735  -10.4042   12.7962 C   0  0  0  0  0  0  0  0  0  0  0  0
   10.1313   -5.5120   18.2002 He  0  0  0  0  0  0  0  0  0  0  0  0
   -1.8374  -11.9577   13.2219 He  0  0  0  0  0  0  0  0  0  0  0  0
    6.4993   -8.3741   17.7753 He  0  0  0  0  0  0  0  0  0  0  0  0
   -0.4814   -9.6316   13.4539 He  0  0  0  0  0  0  0  0  0  0  0  0
    7.3942   -6.6726   16.1028 He  0  0  0  0  0  0  0  0  0  0  0  0
   11.2886   -3.2473   17.9301 He  0  0  0  0  0  0  0  0  0  0  0  0
  1  2  4  0
  1 14  1  0
  1 18  2  0
  1 26  4  0
  2  3  1  0
  2  5  2  0
  2  8  3  0
  2 19  4  0
  2 21  1  0
  2 25  4  0
  2 27  3  0
  3  7  2  0
  3 10  4  0
  3 14  1  0
  3 22  2  0
  3 27  1  0
  4  5  4  0
  4  6  4  0
  4  7  3  0
  4  9  1  0
  5  8  2  0
  5 14  1  0
  5 19  1  0
  5 25  4  0
  5 27  2  0
  6 14  1  0
  6 24  4  0
  6 26  4  0
  7  8  2  0
  7  9  4  0
  7 10  4  0
  7 12  1  0
  7 13  1  0
  8 11  4  0
  8 12  4  0
  8 18  2  0
  8 24  4  0
  9 11  2  0
 10 13  3  0
 10 15  4  0
 11 13  2  0
 11 14  1  0
 11 15  1  0
 11 16  1  0
 11 17  3  0
 11 19  3  0
 11 23  2  0
 11 28  1  0
 12 14  3  0
 12 19  1  0
 13 17  2  0
 13 23  4  0
 13 26  4  0
 13 27  4  0
 14 23  2  0
 15 18  2  0
 15 20  1  0
 15 21  3  0
 15 22  3  0
 16 18  1  0
 17 22  3  0
 17 24  2  0
 17 25  4  0
 18 21  2  0
 19 26  3  0
 19 28  3  0
 20 21  1  0
 20 23  4  0
 21 22  4  0
 22 26  1  0
 23 24  1  0
 24 28  4  0
M  END
$$$$

 Created by Python create_sdf_string function

 34 37  0  0  0  0  0  0  0  0999 V2000
    3.1854  -11.1328   18.7036 C   0  0  0  0  0  0  0  0  0  0  0  0
    9.1553   -5.5610   17.3015 C   0  0  0  0  0  0  0  0  0  0  0  0
    0.5281   -9.5087   15.9995 N   0  0  0  0  0  0  0  0  0  0  0  0
    9.8362   -4.1393   27.0337 C   0  0  0  0  0  0  0  0  0  0  0  0
    5.6277   -7.7221   16.9567 C   0  0  0  0  0  0  0  0  0  0  0  0
    8.4499   -4.1869   27.3465 N   0  0  0  0  0  0  0  0  0  0  0  0
   -0.2541  -10.2577   15.0798 C   0  0  0  0  0  0  0  0  0  0  0  0
    9.8892   -5.5399   18.4901 C   0  0  0  0  0  0  0  0  0  0  0  0
    8.6548   -2.6015   25.6574 N   0  0  0  0  0  0  0  0  0  0  0  0
    3.5334  -10.0216   17.9566 C   0  0  0  0  0  0  0  0  0  0  0  0
   -0.7906  -11.5190   15.3809 C   0  0  0  0  0  0  0  0  0  0  0  0
    3.0791   -8.1532   16.5531 C   0  0  0  0  0  0  0  0  0  0  0  0
   -1.6843  -11.6780   13.2214 C   0  0  0  0  0  0  0  0  0  0  0  0
   10.0020   -3.1764   26.0034 N   0  0  0  0  0  0  0  0  0  0  0  0
    1.0305  -10.9868   17.8206 N   0  0  0  0  0  0  0  0  0  0  0  0
    4.3888   -7.7667   16.8720 N   0  0  0  0  0  0  0  0  0  0  0  0
   -1.5009  -12.2152   14.4736 C   0  0  0  0  0  0  0  0  0  0  0  0
    2.6359   -9.3910   17.1477 C   0  0  0  0  0  0  0  0  0  0  0  0
   10.4578   -3.5506   16.7029 C   0  0  0  0  0  0  0  0  0  0  0  0
    7.6765   -7.3754   18.1137 C   0  0  0  0  0  0  0  0  0  0  0  0
    4.7739   -9.7352   18.1628 N   0  0  0  0  0  0  0  0  0  0  0  0
    6.5291   -7.8748   17.9986 C   0  0  0  0  0  0  0  0  0  0  0  0
   10.8494   -4.5694   18.8051 C   0  0  0  0  0  0  0  0  0  0  0  0
   -0.4969   -9.7740   13.8378 C   0  0  0  0  0  0  0  0  0  0  0  0
    7.4711   -6.6819   15.9284 C   0  0  0  0  0  0  0  0  0  0  0  0
    8.1727   -6.5158   17.1064 C   0  0  0  0  0  0  0  0  0  0  0  0
    6.3117   -7.2529   15.8360 C   0  0  0  0  0  0  0  0  0  0  0  0
   11.0653   -3.5660   17.9033 C   0  0  0  0  0  0  0  0  0  0  0  0
    2.4252   -7.4230   15.8000 O   0  0  0  0  0  0  0  0  0  0  0  0
    7.7327   -3.2636   26.4877 C   0  0  0  0  0  0  0  0  0  0  0  0
    9.4731   -4.5179   16.4070 C   0  0  0  0  0  0  0  0  0  0  0  0
    1.9023  -11.5715   18.6733 C   0  0  0  0  0  0  0  0  0  0  0  0
    1.3657   -9.9319   16.9512 C   0  0  0  0  0  0  0  0  0  0  0  0
   -1.2290  -10.4684   12.8935 C   0  0  0  0  0  0  0  0  0  0  0  0
  1 10  4  0
  1 32  4  0
  2  8  4  0
  2 26  1  0
  2 31  4  0
  3  7  1  0
  3 33  1  0
  4  6  4  0
  4 14  4  0
  5 16  1  0
  5 22  4  0
  5 27  4  0
  6 30  4  0
  7 11  4  0
  7 24  4  0
  8 23  4  0
  9 14  4  0
  9 30  4  0
 10 18  4  0
 10 21  1  0
 11 17  4  0
 12 16  1  0
 12 18  1  0
 12 29  2  0
 13 17  4  0
 13 34  4  0
 15 32  4  0
 15 33  4  0
 18 33  4  0
 19 28  4  0
 19 31  4  0
 20 22  4  0
 20 26  4  0
 23 28  4  0
 24 34  4  0
 25 26  4  0
 25 27  4  0
M  END
$$$$

 Created by Python create_sdf_string function

 34 60  0  0  0  0  0  0  0  0999 V2000
    3.5038  -11.5037   18.8578 C   0  0  0  0  0  0  0  0  0  0  0  0
    9.2660   -5.3249   17.0575 C   0  0  0  0  0  0  0  0  0  0  0  0
   10.0352   -4.2350   27.2020 C   0  0  0  0  0  0  0  0  0  0  0  0
    5.3531   -7.0643   15.9110 C   0  0  0  0  0  0  0  0  0  0  0  0
   -0.2073  -10.1999   15.2110 C   0  0  0  0  0  0  0  0  0  0  0  0
   10.3452   -5.7157   18.4984 C   0  0  0  0  0  0  0  0  0  0  0  0
    8.7479   -2.5579   25.7096 N   0  0  0  0  0  0  0  0  0  0  0  0
    3.6678   -9.9027   17.3915 C   0  0  0  0  0  0  0  0  0  0  0  0
   -0.6451  -11.4046   14.8757 C   0  0  0  0  0  0  0  0  0  0  0  0
    3.1250   -7.9537   16.0616 C   0  0  0  0  0  0  0  0  0  0  0  0
   -1.4743  -11.6172   12.8761 C   0  0  0  0  0  0  0  0  0  0  0  0
   10.4496   -2.9962   26.3767 N   0  0  0  0  0  0  0  0  0  0  0  0
    1.4723  -11.3033   17.7598 N   0  0  0  0  0  0  0  0  0  0  0  0
    4.5167   -6.9241   17.2017 N   0  0  0  0  0  0  0  0  0  0  0  0
    2.5275   -9.3196   17.2655 C   0  0  0  0  0  0  0  0  0  0  0  0
   10.3820   -3.6021   16.3731 C   0  0  0  0  0  0  0  0  0  0  0  0
    4.5768   -9.5989   18.4023 N   0  0  0  0  0  0  0  0  0  0  0  0
    6.3737   -7.9044   17.8484 C   0  0  0  0  0  0  0  0  0  0  0  0
   10.7394   -4.3084   18.7046 C   0  0  0  0  0  0  0  0  0  0  0  0
   -0.2421   -9.7238   13.6992 C   0  0  0  0  0  0  0  0  0  0  0  0
    7.3880   -7.0137   15.9011 C   0  0  0  0  0  0  0  0  0  0  0  0
    8.2881   -6.3307   17.1997 Cl  0  0  0  0  0  0  0  0  0  0  0  0
   11.0562   -3.5166   18.1420 C   0  0  0  0  0  0  0  0  0  0  0  0
    2.3116   -7.7758   15.8849 O   0  0  0  0  0  0  0  0  0  0  0  0
    7.6839   -3.4574   26.6690 C   0  0  0  0  0  0  0  0  0  0  0  0
    2.1486  -11.4950   18.6653 C   0  0  0  0  0  0  0  0  0  0  0  0
    0.9867  -10.0052   16.8544 C   0  0  0  0  0  0  0  0  0  0  0  0
   -1.1101  -10.3265   13.0154 C   0  0  0  0  0  0  0  0  0  0  0  0
    0.6874   -9.4521   15.4751 He  0  0  0  0  0  0  0  0  0  0  0  0
    8.5738   -4.3163   27.4504 He  0  0  0  0  0  0  0  0  0  0  0  0
   -1.4807  -12.2616   14.5476 He  0  0  0  0  0  0  0  0  0  0  0  0
    8.1976   -8.1605   18.1184 He  0  0  0  0  0  0  0  0  0  0  0  0
    6.0595   -7.3296   16.1355 He  0  0  0  0  0  0  0  0  0  0  0  0
    9.2057   -4.6051   16.7030 He  0  0  0  0  0  0  0  0  0  0  0  0
  1  8  4  0
  1 25  3  0
  1 26  4  0
  2  6  4  0
  2 10  2  0
  2 12  2  0
  2 22  1  0
  3 12  4  0
  3 15  1  0
  3 21  4  0
  3 22  1  0
  4  8  4  0
  4  9  1  0
  4 13  1  0
  4 14  1  0
  4 18  4  0
  4 19  4  0
  4 20  2  0
  4 21  2  0
  5  8  1  0
  5  9  4  0
  5 20  4  0
  6 14  2  0
  6 15  1  0
  7 12  4  0
  7 21  3  0
  7 25  4  0
  7 27  4  0
  8  9  4  0
  8 10  2  0
  8 12  3  0
  8 15  4  0
  8 17  1  0
  8 27  1  0
 10 15  4  0
 10 17  3  0
 10 25  4  0
 11 15  2  0
 11 16  1  0
 11 24  4  0
 11 28  4  0
 12 19  4  0
 13 26  4  0
 13 27  4  0
 14 16  3  0
 15 17  2  0
 15 26  2  0
 15 27  4  0
 16 17  4  0
 16 18  4  0
 16 22  4  0
 16 23  4  0
 16 24  4  0
 17 18  1  0
 17 22  4  0
 19 23  4  0
 20 28  2  0
 21 22  4  0
 22 24  2  0
 23 25  2  0
M  END
$$$$

 Created by Python create_sdf_string function

 34 37  0  0  0  0  0  0  0  0999 V2000
    3.3091  -11.0976   18.6873 C   0  0  0  0  0  0  0  0  0  0  0  0
    9.2407   -5.6662   17.2672 C   0  0  0  0  0  0  0  0  0  0  0  0
    0.5908   -9.5593   15.9915 N   0  0  0  0  0  0  0  0  0  0  0  0
   10.0466   -4.1383   27.2147 C   0  0  0  0  0  0  0  0  0  0  0  0
    5.5794   -7.6505   16.8051 C   0  0  0  0  0  0  0  0  0  0  0  0
    8.5959   -4.2979   27.3955 N   0  0  0  0  0  0  0  0  0  0  0  0
   -0.1172  -10.2706   15.0184 C   0  0  0  0  0  0  0  0  0  0  0  0
   10.0111   -5.5999   18.4794 C   0  0  0  0  0  0  0  0  0  0  0  0
    8.8051   -2.5847   25.8035 N   0  0  0  0  0  0  0  0  0  0  0  0
    3.6401   -9.9507   17.9015 C   0  0  0  0  0  0  0  0  0  0  0  0
   -0.6501  -11.5162   15.2224 C   0  0  0  0  0  0  0  0  0  0  0  0
    3.1085   -8.1698   16.4604 C   0  0  0  0  0  0  0  0  0  0  0  0
   -1.6009  -11.5960   13.0786 C   0  0  0  0  0  0  0  0  0  0  0  0
   10.1939   -3.0603   26.2621 N   0  0  0  0  0  0  0  0  0  0  0  0
    1.2143  -11.1154   17.7058 N   0  0  0  0  0  0  0  0  0  0  0  0
    4.4504   -7.7429   16.6556 N   0  0  0  0  0  0  0  0  0  0  0  0
   -1.3754  -12.1626   14.3023 C   0  0  0  0  0  0  0  0  0  0  0  0
    2.7273   -9.3975   17.0764 C   0  0  0  0  0  0  0  0  0  0  0  0
   10.3144   -3.5554   16.7212 C   0  0  0  0  0  0  0  0  0  0  0  0
    7.7402   -7.5127   17.9674 C   0  0  0  0  0  0  0  0  0  0  0  0
    4.8836   -9.6964   18.1652 N   0  0  0  0  0  0  0  0  0  0  0  0
    6.4100   -8.0851   17.8253 C   0  0  0  0  0  0  0  0  0  0  0  0
   10.9037   -4.5385   18.7505 C   0  0  0  0  0  0  0  0  0  0  0  0
   -0.3463   -9.7215   13.7828 C   0  0  0  0  0  0  0  0  0  0  0  0
    7.3926   -6.5684   15.8982 C   0  0  0  0  0  0  0  0  0  0  0  0
    8.1968   -6.5837   17.0469 C   0  0  0  0  0  0  0  0  0  0  0  0
    6.1296   -6.9765   15.8576 C   0  0  0  0  0  0  0  0  0  0  0  0
   10.9975   -3.5101   17.8920 C   0  0  0  0  0  0  0  0  0  0  0  0
    2.3640   -7.4811   15.7974 O   0  0  0  0  0  0  0  0  0  0  0  0
    7.8282   -3.3765   26.5431 C   0  0  0  0  0  0  0  0  0  0  0  0
    9.4608   -4.5798   16.4017 C   0  0  0  0  0  0  0  0  0  0  0  0
    2.0806  -11.6157   18.5759 C   0  0  0  0  0  0  0  0  0  0  0  0
    1.4587  -10.0337   16.8937 C   0  0  0  0  0  0  0  0  0  0  0  0
   -1.1044  -10.3664   12.7720 C   0  0  0  0  0  0  0  0  0  0  0  0
  1 10  4  0
  1 32  4  0
  2  8  4  0
  2 26  1  0
  2 31  4  0
  3  7  1  0
  3 33  1  0
  4  6  4  0
  4 14  4  0
  5 16  1  0
  5 22  4  0
  5 27  4  0
  6 30  4  0
  7 11  4  0
  7 24  4  0
  8 23  4  0
  9 14  4  0
  9 30  4  0
 10 18  4  0
 10 21  1  0
 11 17  4  0
 12 16  4  0
 12 18  4  0
 12 29  2  0
 13 17  4  0
 13 34  4  0
 15 32  4  0
 15 33  4  0
 18 33  4  0
 19 28  4  0
 19 31  4  0
 20 22  4  0
 20 26  4  0
 23 28  4  0
 24 34  4  0
 25 26  4  0
 25 27  4  0
M  END
$$$$

 Created by Python create_sdf_string function

 34 90  0  0  0  0  0  0  0  0999 V2000
    3.3226  -11.1844   18.9483 C   0  0  0  0  0  0  0  0  0  0  0  0
    9.1703   -5.9195   16.9946 C   0  0  0  0  0  0  0  0  0  0  0  0
    0.5950   -9.7390   15.6719 N   0  0  0  0  0  0  0  0  0  0  0  0
    9.9095   -3.9065   26.9887 C   0  0  0  0  0  0  0  0  0  0  0  0
    5.5662   -8.1424   16.6136 C   0  0  0  0  0  0  0  0  0  0  0  0
    8.4974   -4.1166   27.6210 N   0  0  0  0  0  0  0  0  0  0  0  0
   -0.2161  -10.5631   15.1983 C   0  0  0  0  0  0  0  0  0  0  0  0
    9.8511   -5.7481   18.3507 C   0  0  0  0  0  0  0  0  0  0  0  0
    8.6231   -2.2868   25.5381 N   0  0  0  0  0  0  0  0  0  0  0  0
    3.4595  -10.6722   18.0144 S   0  0  0  0  0  0  0  0  0  0  0  0
   -0.5000  -11.1729   15.4663 Br  0  0  0  0  0  0  0  0  0  0  0  0
    3.4771   -8.8539   15.6247 C   0  0  0  0  0  0  0  0  0  0  0  0
   -1.4614  -11.8522   13.0198 C   0  0  0  0  0  0  0  0  0  0  0  0
   10.1366   -2.6393   26.2959 N   0  0  0  0  0  0  0  0  0  0  0  0
    1.2378  -11.1437   17.7382 N   0  0  0  0  0  0  0  0  0  0  0  0
    4.4460   -7.3483   15.7339 N   0  0  0  0  0  0  0  0  0  0  0  0
   -1.3492  -12.0066   14.3023 C   0  0  0  0  0  0  0  0  0  0  0  0
    2.3994   -9.1733   16.9646 C   0  0  0  0  0  0  0  0  0  0  0  0
   10.3542   -3.1785   16.9281 C   0  0  0  0  0  0  0  0  0  0  0  0
    7.0955   -7.1759   18.5170 C   0  0  0  0  0  0  0  0  0  0  0  0
    4.9696  -10.3154   17.9778 O   0  0  0  0  0  0  0  0  0  0  0  0
    6.3004   -8.3105   17.7245 C   0  0  0  0  0  0  0  0  0  0  0  0
   11.1236   -4.5270   18.5472 F   0  0  0  0  0  0  0  0  0  0  0  0
   -0.1171   -9.5590   13.9654 C   0  0  0  0  0  0  0  0  0  0  0  0
    7.3499   -6.4966   15.9449 C   0  0  0  0  0  0  0  0  0  0  0  0
    6.5886   -6.2966   15.6319 C   0  0  0  0  0  0  0  0  0  0  0  0
   11.0697   -3.7479   18.2120 C   0  0  0  0  0  0  0  0  0  0  0  0
    2.4831   -7.4010   15.4339 O   0  0  0  0  0  0  0  0  0  0  0  0
    7.5655   -3.5075   26.4060 C   0  0  0  0  0  0  0  0  0  0  0  0
    9.4926   -4.5572   16.5001 C   0  0  0  0  0  0  0  0  0  0  0  0
    2.1178  -11.6756   18.7695 C   0  0  0  0  0  0  0  0  0  0  0  0
    1.6588  -10.1932   17.0171 C   0  0  0  0  0  0  0  0  0  0  0  0
   -1.0783  -10.3252   12.7445 C   0  0  0  0  0  0  0  0  0  0  0  0
    8.5230   -6.4725   17.1961 He  0  0  0  0  0  0  0  0  0  0  0  0
  1 10  2  0
  1 13  3  0
  1 15  3  0
  1 21  3  0
  1 28  1  0
  1 31  2  0
  2  3  2  0
  2  6  2  0
  2  8  4  0
  2  9  3  0
  2 30  1  0
  3  7  1  0
  3 12  3  0
  3 20  3  0
  3 32  1  0
  4  6  4  0
  4 10  2  0
  4 14  2  0
  4 16  2  0
  4 26  4  0
  5  7  4  0
  5  8  1  0
  5 15  2  0
  5 16  1  0
  5 19  4  0
  5 20  2  0
  5 25  1  0
  5 33  3  0
  6 10  1  0
  6 25  4  0
  6 29  4  0
  7 11  4  0
  7 24  4  0
  7 26  4  0
  8  9  2  0
  8 12  3  0
  8 16  3  0
  8 21  4  0
  8 23  4  0
  8 25  3  0
  9 13  4  0
  9 14  4  0
  9 29  4  0
 10 15  3  0
 10 18  4  0
 10 20  2  0
 10 21  1  0
 10 26  1  0
 10 28  2  0
 10 32  4  0
 11 17  4  0
 12 15  4  0
 12 16  4  0
 12 19  1  0
 12 28  3  0
 13 15  4  0
 13 17  4  0
 13 20  1  0
 13 28  3  0
 13 33  4  0
 15 27  2  0
 15 31  4  0
 15 32  4  0
 16 18  1  0
 16 19  3  0
 16 20  1  0
 17 23  1  0
 17 25  2  0
 18 24  4  0
 18 32  4  0
 19 25  2  0
 19 26  2  0
 19 27  4  0
 19 30  4  0
 20 22  4  0
 20 23  1  0
 20 24  4  0
 20 29  2  0
 20 32  1  0
 21 25  3  0
 21 26  3  0
 21 30  1  0
 23 27  4  0
 24 33  4  0
 25 26  4  0
 25 31  2  0
 25 32  3  0
 26 27  2  0
 26 32  1  0
 27 32  2  0
M  END
$$$$

 Created by Python create_sdf_string function

 34 37  0  0  0  0  0  0  0  0999 V2000
    3.2352  -11.1933   18.7905 C   0  0  0  0  0  0  0  0  0  0  0  0
    9.1708   -5.5931   17.3454 C   0  0  0  0  0  0  0  0  0  0  0  0
    0.7010   -9.5790   16.0288 N   0  0  0  0  0  0  0  0  0  0  0  0
    9.9208   -3.7949   27.1213 C   0  0  0  0  0  0  0  0  0  0  0  0
    5.6007   -7.7358   16.5526 C   0  0  0  0  0  0  0  0  0  0  0  0
    8.5266   -4.1126   27.3276 N   0  0  0  0  0  0  0  0  0  0  0  0
   -0.0364  -10.3154   15.0893 C   0  0  0  0  0  0  0  0  0  0  0  0
   10.0273   -5.7154   18.4590 C   0  0  0  0  0  0  0  0  0  0  0  0
    8.6025   -2.4350   25.6907 N   0  0  0  0  0  0  0  0  0  0  0  0
    3.7343  -10.2703   17.8693 C   0  0  0  0  0  0  0  0  0  0  0  0
   -0.6083  -11.5147   15.3327 C   0  0  0  0  0  0  0  0  0  0  0  0
    3.2923   -8.5032   16.1280 C   0  0  0  0  0  0  0  0  0  0  0  0
   -1.5256  -11.6037   13.1764 C   0  0  0  0  0  0  0  0  0  0  0  0
    9.9877   -2.7595   26.1657 N   0  0  0  0  0  0  0  0  0  0  0  0
    1.1690  -11.0637   17.7863 N   0  0  0  0  0  0  0  0  0  0  0  0
    4.5380   -8.2655   16.1785 N   0  0  0  0  0  0  0  0  0  0  0  0
   -1.3726  -12.1481   14.4089 C   0  0  0  0  0  0  0  0  0  0  0  0
    2.8382   -9.6682   16.9658 C   0  0  0  0  0  0  0  0  0  0  0  0
   10.4024   -3.5354   16.8667 C   0  0  0  0  0  0  0  0  0  0  0  0
    7.4707   -7.3864   17.9743 C   0  0  0  0  0  0  0  0  0  0  0  0
    4.9625  -10.1824   17.9642 O   0  0  0  0  0  0  0  0  0  0  0  0
    6.3191   -7.8292   17.7043 C   0  0  0  0  0  0  0  0  0  0  0  0
   10.9468   -4.7148   18.8050 C   0  0  0  0  0  0  0  0  0  0  0  0
   -0.2060   -9.7822   13.8256 C   0  0  0  0  0  0  0  0  0  0  0  0
    7.3915   -6.3692   15.8629 C   0  0  0  0  0  0  0  0  0  0  0  0
    8.0862   -6.4469   17.0912 C   0  0  0  0  0  0  0  0  0  0  0  0
    6.2685   -6.9438   15.6431 C   0  0  0  0  0  0  0  0  0  0  0  0
   11.0582   -3.6299   18.0206 C   0  0  0  0  0  0  0  0  0  0  0  0
    2.5154   -7.7937   15.4428 O   0  0  0  0  0  0  0  0  0  0  0  0
    7.7050   -3.3113   26.4234 C   0  0  0  0  0  0  0  0  0  0  0  0
    9.4549   -4.4413   16.5229 C   0  0  0  0  0  0  0  0  0  0  0  0
    1.9757  -11.5584   18.7717 C   0  0  0  0  0  0  0  0  0  0  0  0
    1.5391  -10.1288   16.8907 C   0  0  0  0  0  0  0  0  0  0  0  0
   -0.9689  -10.4033   12.8748 C   0  0  0  0  0  0  0  0  0  0  0  0
  1 10  4  0
  1 32  4  0
  2  8  4  0
  2 26  1  0
  2 31  4  0
  3  7  1  0
  3 33  1  0
  4  6  4  0
  4 14  4  0
  5 16  1  0
  5 22  4  0
  5 27  4  0
  6 30  4  0
  7 11  4  0
  7 24  4  0
  8 23  4  0
  9 14  4  0
  9 30  4  0
 10 18  4  0
 10 21  1  0
 11 17  4  0
 12 16  1  0
 12 18  1  0
 12 29  2  0
 13 17  4  0
 13 34  4  0
 15 32  4  0
 15 33  4  0
 18 33  4  0
 19 28  4  0
 19 31  4  0
 20 22  4  0
 20 26  4  0
 23 28  4  0
 24 34  4  0
 25 26  4  0
 25 27  4  0
M  END
$$$$

 Created by Python create_sdf_string function

 34 60  0  0  0  0  0  0  0  0999 V2000
    3.0760  -10.9457   18.9745 C   0  0  0  0  0  0  0  0  0  0  0  0
    9.0620   -5.3735   17.4190 C   0  0  0  0  0  0  0  0  0  0  0  0
    0.6407   -9.7096   16.2408 N   0  0  0  0  0  0  0  0  0  0  0  0
    9.7916   -3.8700   27.1576 C   0  0  0  0  0  0  0  0  0  0  0  0
    5.4290   -7.8902   16.6812 C   0  0  0  0  0  0  0  0  0  0  0  0
    8.5860   -4.2092   27.4101 N   0  0  0  0  0  0  0  0  0  0  0  0
   -0.5366  -10.3561   14.8732 C   0  0  0  0  0  0  0  0  0  0  0  0
    9.9079   -5.5289   18.2078 C   0  0  0  0  0  0  0  0  0  0  0  0
    8.7483   -2.4732   25.6279 N   0  0  0  0  0  0  0  0  0  0  0  0
    3.5884   -9.9530   17.1240 C   0  0  0  0  0  0  0  0  0  0  0  0
   -0.5248  -11.3678   15.1462 C   0  0  0  0  0  0  0  0  0  0  0  0
   -1.5498  -11.3150   12.8215 O   0  0  0  0  0  0  0  0  0  0  0  0
    9.7313   -2.7053   26.2934 N   0  0  0  0  0  0  0  0  0  0  0  0
    1.3808  -11.1999   17.7358 N   0  0  0  0  0  0  0  0  0  0  0  0
    5.0727   -8.2668   15.7119 O   0  0  0  0  0  0  0  0  0  0  0  0
   -1.3796  -11.8955   14.7674 C   0  0  0  0  0  0  0  0  0  0  0  0
    3.1113   -9.6259   17.2394 C   0  0  0  0  0  0  0  0  0  0  0  0
   10.2420   -3.6865   16.8595 C   0  0  0  0  0  0  0  0  0  0  0  0
    6.8979   -6.8914   17.7601 P   0  0  0  0  0  0  0  0  0  0  0  0
    6.1236   -7.9325   17.7295 C   0  0  0  0  0  0  0  0  0  0  0  0
   11.1285   -5.0718   18.7333 C   0  0  0  0  0  0  0  0  0  0  0  0
    0.0727   -9.6399   14.0194 C   0  0  0  0  0  0  0  0  0  0  0  0
    7.5291   -6.4846   15.7112 C   0  0  0  0  0  0  0  0  0  0  0  0
    5.9554   -6.4318   16.2192 C   0  0  0  0  0  0  0  0  0  0  0  0
    2.5843   -8.0278   15.3575 O   0  0  0  0  0  0  0  0  0  0  0  0
    7.7553   -3.4350   26.6354 C   0  0  0  0  0  0  0  0  0  0  0  0
    9.4357   -4.0782   16.4489 C   0  0  0  0  0  0  0  0  0  0  0  0
    1.9308  -10.0219   16.8308 C   0  0  0  0  0  0  0  0  0  0  0  0
   -1.0782  -10.7103   12.9929 C   0  0  0  0  0  0  0  0  0  0  0  0
    3.1205   -8.4374   16.2342 He  0  0  0  0  0  0  0  0  0  0  0  0
    5.1944  -10.3453   18.1758 He  0  0  0  0  0  0  0  0  0  0  0  0
    8.0874   -6.2603   17.0843 He  0  0  0  0  0  0  0  0  0  0  0  0
   11.2426   -3.8167   18.0465 He  0  0  0  0  0  0  0  0  0  0  0  0
    1.8327  -11.4308   18.6150 He  0  0  0  0  0  0  0  0  0  0  0  0
  1  8  4  0
  2  8  4  0
  2 24  3  0
  2 25  1  0
  2 27  4  0
  3  6  2  0
  3  7  1  0
  3 24  1  0
  3 28  1  0
  4 13  4  0
  4 15  2  0
  5 10  4  0
  5 13  4  0
  5 15  1  0
  5 20  4  0
  5 21  4  0
  5 26  1  0
  5 28  1  0
  6 26  4  0
  7 11  4  0
  7 22  4  0
  7 25  2  0
  8 16  3  0
  8 18  1  0
  8 21  4  0
  8 23  2  0
  8 26  1  0
  9 13  4  0
 10 12  1  0
 10 17  1  0
 10 20  2  0
 11 15  3  0
 11 16  4  0
 11 22  3  0
 12 16  4  0
 12 19  1  0
 12 29  4  0
 13 20  4  0
 13 21  1  0
 13 24  1  0
 13 25  3  0
 14 15  1  0
 14 19  4  0
 14 24  2  0
 14 28  4  0
 17 24  1  0
 17 28  4  0
 17 29  4  0
 18 25  3  0
 18 27  4  0
 19 20  2  0
 19 23  2  0
 19 28  2  0
 19 29  3  0
 20 24  1  0
 20 26  4  0
 22 29  4  0
 23 24  4  0
 24 29  4  0
 28 29  1  0
M  END
$$$$

 Created by Python create_sdf_string function

 34 37  0  0  0  0  0  0  0  0999 V2000
    3.2609  -11.1440   18.8102 C   0  0  0  0  0  0  0  0  0  0  0  0
    9.0736   -5.4631   17.3157 C   0  0  0  0  0  0  0  0  0  0  0  0
    0.6944   -9.5364   16.1342 N   0  0  0  0  0  0  0  0  0  0  0  0
    9.8886   -3.7787   27.1642 C   0  0  0  0  0  0  0  0  0  0  0  0
    5.5834   -7.7883   16.5153 C   0  0  0  0  0  0  0  0  0  0  0  0
    8.5645   -4.1847   27.3900 N   0  0  0  0  0  0  0  0  0  0  0  0
   -0.0340  -10.2696   15.1239 C   0  0  0  0  0  0  0  0  0  0  0  0
    9.9427   -5.7135   18.4207 C   0  0  0  0  0  0  0  0  0  0  0  0
    8.5675   -2.5031   25.7375 N   0  0  0  0  0  0  0  0  0  0  0  0
    3.8170  -10.2737   17.9132 C   0  0  0  0  0  0  0  0  0  0  0  0
   -0.7369  -11.4423   15.3517 C   0  0  0  0  0  0  0  0  0  0  0  0
    3.3486   -8.6766   16.0216 C   0  0  0  0  0  0  0  0  0  0  0  0
   -1.5115  -11.4394   13.1704 C   0  0  0  0  0  0  0  0  0  0  0  0
    9.9162   -2.7605   26.1970 N   0  0  0  0  0  0  0  0  0  0  0  0
    1.1908  -11.0324   17.8180 N   0  0  0  0  0  0  0  0  0  0  0  0
    4.5936   -8.4749   16.1122 N   0  0  0  0  0  0  0  0  0  0  0  0
   -1.4729  -12.0172   14.4014 C   0  0  0  0  0  0  0  0  0  0  0  0
    2.8881   -9.7123   16.9586 C   0  0  0  0  0  0  0  0  0  0  0  0
   10.5051   -3.5229   16.8794 C   0  0  0  0  0  0  0  0  0  0  0  0
    7.3408   -7.0880   18.0182 C   0  0  0  0  0  0  0  0  0  0  0  0
    4.9892  -10.1671   18.0736 O   0  0  0  0  0  0  0  0  0  0  0  0
    6.2340   -7.6558   17.7030 C   0  0  0  0  0  0  0  0  0  0  0  0
   11.0380   -4.8768   18.7373 C   0  0  0  0  0  0  0  0  0  0  0  0
   -0.1165   -9.7545   13.8446 C   0  0  0  0  0  0  0  0  0  0  0  0
    7.2857   -6.2273   15.8233 C   0  0  0  0  0  0  0  0  0  0  0  0
    7.9590   -6.2340   17.0424 C   0  0  0  0  0  0  0  0  0  0  0  0
    6.2110   -6.9645   15.5694 C   0  0  0  0  0  0  0  0  0  0  0  0
   11.2356   -3.8038   17.9424 C   0  0  0  0  0  0  0  0  0  0  0  0
    2.6086   -8.0327   15.2329 O   0  0  0  0  0  0  0  0  0  0  0  0
    7.7259   -3.3961   26.5157 C   0  0  0  0  0  0  0  0  0  0  0  0
    9.4026   -4.3275   16.5288 C   0  0  0  0  0  0  0  0  0  0  0  0
    2.0146  -11.5239   18.7592 C   0  0  0  0  0  0  0  0  0  0  0  0
    1.5889  -10.0898   16.9372 C   0  0  0  0  0  0  0  0  0  0  0  0
   -0.8756  -10.3128   12.9065 C   0  0  0  0  0  0  0  0  0  0  0  0
  1 10  4  0
  1 32  4  0
  2  8  4  0
  2 26  1  0
  2 31  4  0
  3  7  1  0
  3 33  1  0
  4  6  4  0
  4 14  4  0
  5 16  1  0
  5 22  4  0
  5 27  4  0
  6 30  4  0
  7 11  4  0
  7 24  4  0
  8 23  4  0
  9 14  4  0
  9 30  4  0
 10 18  4  0
 10 21  2  0
 11 17  4  0
 12 16  1  0
 12 18  1  0
 12 29  2  0
 13 17  4  0
 13 34  4  0
 15 32  4  0
 15 33  4  0
 18 33  4  0
 19 28  4  0
 19 31  4  0
 20 22  4  0
 20 26  4  0
 23 28  4  0
 24 34  4  0
 25 26  4  0
 25 27  4  0
M  END
$$$$

 Created by Python create_sdf_string function

 34 90  0  0  0  0  0  0  0  0999 V2000
    3.2718  -10.9143   18.8822 N   0  0  0  0  0  0  0  0  0  0  0  0
    9.0502   -5.5559   17.7184 C   0  0  0  0  0  0  0  0  0  0  0  0
    0.4904   -9.3725   16.0058 N   0  0  0  0  0  0  0  0  0  0  0  0
   10.1359   -3.7192   26.8948 C   0  0  0  0  0  0  0  0  0  0  0  0
    8.5197   -4.0313   27.2427 N   0  0  0  0  0  0  0  0  0  0  0  0
   -0.1400  -10.1216   15.0132 C   0  0  0  0  0  0  0  0  0  0  0  0
    9.9196   -5.6780   18.4218 C   0  0  0  0  0  0  0  0  0  0  0  0
    8.6757   -2.4761   25.6178 C   0  0  0  0  0  0  0  0  0  0  0  0
    3.4630   -9.9597   18.2291 C   0  0  0  0  0  0  0  0  0  0  0  0
   -0.4344  -11.4989   15.1896 Cl  0  0  0  0  0  0  0  0  0  0  0  0
    4.1375   -8.0429   15.8810 C   0  0  0  0  0  0  0  0  0  0  0  0
   -1.4825  -11.3146   13.1371 C   0  0  0  0  0  0  0  0  0  0  0  0
    9.9840   -3.0064   26.1598 N   0  0  0  0  0  0  0  0  0  0  0  0
    1.2089  -11.0006   18.0322 N   0  0  0  0  0  0  0  0  0  0  0  0
    5.1723   -8.0390   14.9868 N   0  0  0  0  0  0  0  0  0  0  0  0
   -1.0720  -11.8223   14.3591 C   0  0  0  0  0  0  0  0  0  0  0  0
    2.7906   -9.6897   16.5993 C   0  0  0  0  0  0  0  0  0  0  0  0
   10.3521   -3.6205   17.2611 C   0  0  0  0  0  0  0  0  0  0  0  0
    8.1712   -6.7632   18.2846 C   0  0  0  0  0  0  0  0  0  0  0  0
    5.0445  -11.1827   17.3974 O   0  0  0  0  0  0  0  0  0  0  0  0
    6.3434   -7.8821   17.6893 C   0  0  0  0  0  0  0  0  0  0  0  0
   11.0534   -4.8696   18.6584 C   0  0  0  0  0  0  0  0  0  0  0  0
   -0.1168  -10.2053   13.8461 C   0  0  0  0  0  0  0  0  0  0  0  0
    7.1186   -6.2194   15.9751 C   0  0  0  0  0  0  0  0  0  0  0  0
    7.8763   -6.1942   16.9980 C   0  0  0  0  0  0  0  0  0  0  0  0
    6.8895   -6.9356   16.2694 I   0  0  0  0  0  0  0  0  0  0  0  0
   11.0927   -3.4540   17.6059 C   0  0  0  0  0  0  0  0  0  0  0  0
    2.7177   -7.9623   14.9694 O   0  0  0  0  0  0  0  0  0  0  0  0
    7.8346   -3.5290   26.5825 C   0  0  0  0  0  0  0  0  0  0  0  0
    9.4748   -4.5193   16.3687 C   0  0  0  0  0  0  0  0  0  0  0  0
    1.9768  -11.3945   19.0393 C   0  0  0  0  0  0  0  0  0  0  0  0
    1.7355  -10.0350   16.9016 C   0  0  0  0  0  0  0  0  0  0  0  0
    5.3216   -7.9907   16.7111 He  0  0  0  0  0  0  0  0  0  0  0  0
   -0.9311  -10.2520   13.0546 He  0  0  0  0  0  0  0  0  0  0  0  0
  1 14  3  0
  1 16  4  0
  1 31  4  0
  2  5  3  0
  2  7  4  0
  2  9  2  0
  2 12  1  0
  2 25  1  0
  2 26  3  0
  2 30  4  0
  2 32  4  0
  3  6  1  0
  3 19  1  0
  3 20  4  0
  3 21  3  0
  3 26  1  0
  3 29  2  0
  3 32  1  0
  4  5  4  0
  4 13  4  0
  4 32  4  0
  5 15  2  0
  5 20  4  0
  5 24  3  0
  5 29  4  0
  6  8  3  0
  6 10  4  0
  6 20  4  0
  6 23  4  0
  6 28  3  0
  6 30  2  0
  7  9  2  0
  7 13  1  0
  7 20  4  0
  7 22  4  0
  8 11  3  0
  8 13  4  0
  8 15  3  0
  8 20  3  0
  8 21  1  0
  8 25  2  0
  8 29  4  0
  9 17  4  0
  9 20  2  0
  9 21  2  0
  9 32  3  0
 10 11  2  0
 10 16  4  0
 10 19  2  0
 10 20  2  0
 10 26  1  0
 11 14  4  0
 11 15  3  0
 11 16  2  0
 11 22  2  0
 11 24  3  0
 11 25  4  0
 11 28  2  0
 11 31  3  0
 11 32  1  0
 12 16  4  0
 13 19  4  0
 13 20  2  0
 13 22  3  0
 14 31  4  0
 14 32  4  0
 15 17  2  0
 15 24  1  0
 15 28  3  0
 15 31  3  0
 16 31  4  0
 17 18  1  0
 17 27  1  0
 17 30  1  0
 18 30  4  0
 18 32  3  0
 19 20  3  0
 19 21  4  0
 19 31  4  0
 20 21  2  0
 20 31  3  0
 21 25  4  0
 22 24  3  0
 22 27  4  0
 22 31  3  0
 23 29  1  0
 23 30  2  0
 24 26  4  0
 29 31  3  0
 29 32  3  0
M  END
$$$$

 Created by Python create_sdf_string function

 34 37  0  0  0  0  0  0  0  0999 V2000
    3.2334  -11.0435   18.8106 N   0  0  0  0  0  0  0  0  0  0  0  0
    9.1510   -5.5006   17.3577 C   0  0  0  0  0  0  0  0  0  0  0  0
    0.6924   -9.4393   16.1358 N   0  0  0  0  0  0  0  0  0  0  0  0
   10.0309   -3.8493   27.0447 C   0  0  0  0  0  0  0  0  0  0  0  0
    5.6983   -7.8941   16.4823 C   0  0  0  0  0  0  0  0  0  0  0  0
    8.6614   -4.1695   27.3518 N   0  0  0  0  0  0  0  0  0  0  0  0
    0.0319  -10.2133   15.1200 C   0  0  0  0  0  0  0  0  0  0  0  0
    9.9938   -5.6488   18.4798 C   0  0  0  0  0  0  0  0  0  0  0  0
    8.6824   -2.5446   25.6770 C   0  0  0  0  0  0  0  0  0  0  0  0
    3.8065  -10.3723   17.8062 C   0  0  0  0  0  0  0  0  0  0  0  0
   -0.5285  -11.4602   15.3183 C   0  0  0  0  0  0  0  0  0  0  0  0
    3.4412   -8.6874   15.9246 C   0  0  0  0  0  0  0  0  0  0  0  0
   -1.4493  -11.4626   13.1766 C   0  0  0  0  0  0  0  0  0  0  0  0
   10.0721   -2.8720   26.0159 N   0  0  0  0  0  0  0  0  0  0  0  0
    1.1303  -10.7988   17.9480 N   0  0  0  0  0  0  0  0  0  0  0  0
    4.7361   -8.5558   16.0616 N   0  0  0  0  0  0  0  0  0  0  0  0
   -1.2682  -12.0450   14.3865 C   0  0  0  0  0  0  0  0  0  0  0  0
    2.9054   -9.7037   16.9060 C   0  0  0  0  0  0  0  0  0  0  0  0
   10.4930   -3.5449   16.8197 C   0  0  0  0  0  0  0  0  0  0  0  0
    7.5012   -7.2755   18.0289 C   0  0  0  0  0  0  0  0  0  0  0  0
    4.9933  -10.5371   17.7637 O   0  0  0  0  0  0  0  0  0  0  0  0
    6.4204   -7.9182   17.7014 C   0  0  0  0  0  0  0  0  0  0  0  0
   11.0299   -4.7115   18.7657 C   0  0  0  0  0  0  0  0  0  0  0  0
   -0.1294   -9.6686   13.8592 C   0  0  0  0  0  0  0  0  0  0  0  0
    7.3730   -6.2696   15.8924 C   0  0  0  0  0  0  0  0  0  0  0  0
    8.0804   -6.3290   17.1312 C   0  0  0  0  0  0  0  0  0  0  0  0
    6.2869   -6.9420   15.6489 C   0  0  0  0  0  0  0  0  0  0  0  0
   11.2080   -3.6768   17.9329 C   0  0  0  0  0  0  0  0  0  0  0  0
    2.7744   -8.0300   15.0490 O   0  0  0  0  0  0  0  0  0  0  0  0
    7.7990   -3.3759   26.4793 C   0  0  0  0  0  0  0  0  0  0  0  0
    9.3974   -4.3726   16.5354 C   0  0  0  0  0  0  0  0  0  0  0  0
    1.9567  -11.2857   18.8752 C   0  0  0  0  0  0  0  0  0  0  0  0
    1.5777   -9.9896   16.9601 C   0  0  0  0  0  0  0  0  0  0  0  0
   -0.8560  -10.2711   12.9202 C   0  0  0  0  0  0  0  0  0  0  0  0
  1 10  4  0
  1 32  4  0
  2  8  4  0
  2 26  1  0
  2 31  4  0
  3  7  1  0
  3 33  1  0
  4  6  4  0
  4 14  4  0
  5 16  1  0
  5 22  4  0
  5 27  4  0
  6 30  4  0
  7 11  4  0
  7 24  4  0
  8 23  4  0
  9 14  4  0
  9 30  4  0
 10 18  4  0
 10 21  2  0
 11 17  4  0
 12 16  1  0
 12 18  1  0
 12 29  2  0
 13 17  4  0
 13 34  4  0
 15 32  4  0
 15 33  4  0
 18 33  4  0
 19 28  4  0
 19 31  4  0
 20 22  4  0
 20 26  4  0
 23 28  4  0
 24 34  4  0
 25 26  4  0
 25 27  4  0
M  END
$$$$

 Created by Python create_sdf_string function

 34 65  0  0  0  0  0  0  0  0999 V2000
    3.0550  -10.8212   19.0468 N   0  0  0  0  0  0  0  0  0  0  0  0
    9.2503   -5.5969   17.2114 C   0  0  0  0  0  0  0  0  0  0  0  0
    0.5812   -9.5445   15.7570 N   0  0  0  0  0  0  0  0  0  0  0  0
    9.9054   -3.6989   27.3224 C   0  0  0  0  0  0  0  0  0  0  0  0
    8.8244   -4.2483   27.2185 N   0  0  0  0  0  0  0  0  0  0  0  0
    0.0488   -9.9459   15.0389 C   0  0  0  0  0  0  0  0  0  0  0  0
    8.8489   -2.3186   25.8519 C   0  0  0  0  0  0  0  0  0  0  0  0
    4.0342   -9.9176   18.0345 C   0  0  0  0  0  0  0  0  0  0  0  0
   -0.6516  -11.2989   15.3734 C   0  0  0  0  0  0  0  0  0  0  0  0
    2.9196   -8.3317   16.1122 S   0  0  0  0  0  0  0  0  0  0  0  0
   -1.3769  -11.5213   13.3030 C   0  0  0  0  0  0  0  0  0  0  0  0
   10.2771   -2.9560   25.8344 P   0  0  0  0  0  0  0  0  0  0  0  0
    1.3937  -10.6603   18.0912 S   0  0  0  0  0  0  0  0  0  0  0  0
    4.4009   -8.8111   16.5995 N   0  0  0  0  0  0  0  0  0  0  0  0
   -1.3029  -12.0176   14.6474 C   0  0  0  0  0  0  0  0  0  0  0  0
    3.2021   -9.7927   16.9904 C   0  0  0  0  0  0  0  0  0  0  0  0
    8.1890   -7.6011   18.1195 C   0  0  0  0  0  0  0  0  0  0  0  0
    4.6616   -9.9506   17.5289 O   0  0  0  0  0  0  0  0  0  0  0  0
    6.4645   -8.2379   17.6064 C   0  0  0  0  0  0  0  0  0  0  0  0
   10.9885   -4.2579   18.6480 C   0  0  0  0  0  0  0  0  0  0  0  0
   -0.1426   -9.6463   14.2672 C   0  0  0  0  0  0  0  0  0  0  0  0
    7.5212   -6.4646   16.0984 C   0  0  0  0  0  0  0  0  0  0  0  0
    8.6850   -6.5532   16.9671 C   0  0  0  0  0  0  0  0  0  0  0  0
    5.9943   -6.7960   15.5932 C   0  0  0  0  0  0  0  0  0  0  0  0
   10.9429   -3.5484   18.1082 C   0  0  0  0  0  0  0  0  0  0  0  0
    2.7449   -8.1652   15.1343 O   0  0  0  0  0  0  0  0  0  0  0  0
    7.6940   -3.2233   26.6134 C   0  0  0  0  0  0  0  0  0  0  0  0
    9.1625   -4.3974   16.5300 F   0  0  0  0  0  0  0  0  0  0  0  0
    1.5691   -9.8408   16.7239 C   0  0  0  0  0  0  0  0  0  0  0  0
   -1.0541  -10.2235   12.8953 Cl  0  0  0  0  0  0  0  0  0  0  0  0
    6.0027   -7.6738   16.9393 He  0  0  0  0  0  0  0  0  0  0  0  0
   10.1298   -5.4600   18.5787 He  0  0  0  0  0  0  0  0  0  0  0  0
   10.3105   -3.7417   16.8905 He  0  0  0  0  0  0  0  0  0  0  0  0
    1.8136  -11.0003   18.8422 He  0  0  0  0  0  0  0  0  0  0  0  0
  1  8  4  0
  1 10  3  0
  1 18  2  0
  1 20  1  0
  1 24  3  0
  2  4  4  0
  2  6  2  0
  2 23  1  0
  3  6  1  0
  3 21  4  0
  3 29  1  0
  3 30  2  0
  4 11  2  0
  4 12  4  0
  4 22  4  0
  5 15  4  0
  5 21  4  0
  5 24  1  0
  5 27  4  0
  5 29  3  0
  6  9  4  0
  7 11  3  0
  7 12  4  0
  7 19  4  0
  7 27  4  0
  8 13  2  0
  8 16  3  0
  8 18  2  0
  8 21  1  0
  9 15  4  0
  9 18  4  0
  9 22  2  0
 10 11  3  0
 10 14  1  0
 10 16  1  0
 10 19  1  0
 10 27  4  0
 11 14  2  0
 11 15  4  0
 11 22  2  0
 11 30  4  0
 13 23  1  0
 13 29  4  0
 14 18  2  0
 15 27  4  0
 16 29  4  0
 17 19  4  0
 17 20  1  0
 17 23  4  0
 17 25  4  0
 17 26  4  0
 18 22  4  0
 18 27  4  0
 18 28  2  0
 18 29  3  0
 18 30  2  0
 20 24  2  0
 20 25  4  0
 21 23  3  0
 21 24  2  0
 21 30  4  0
 22 23  4  0
 22 24  4  0
 23 26  3  0
 24 29  4  0
M  END
$$$$

 Created by Python create_sdf_string function

 34 37  0  0  0  0  0  0  0  0999 V2000
    3.0933  -10.9781   18.9690 N   0  0  0  0  0  0  0  0  0  0  0  0
    9.2422   -5.5151   17.3093 C   0  0  0  0  0  0  0  0  0  0  0  0
    0.7823   -9.4169   16.0703 N   0  0  0  0  0  0  0  0  0  0  0  0
   10.0682   -3.8567   27.1167 C   0  0  0  0  0  0  0  0  0  0  0  0
    5.8069   -7.8437   16.7267 C   0  0  0  0  0  0  0  0  0  0  0  0
    8.6758   -4.1148   27.3662 N   0  0  0  0  0  0  0  0  0  0  0  0
    0.0067  -10.1575   15.1628 C   0  0  0  0  0  0  0  0  0  0  0  0
   10.0274   -5.5597   18.5023 C   0  0  0  0  0  0  0  0  0  0  0  0
    8.7592   -2.4094   25.7317 C   0  0  0  0  0  0  0  0  0  0  0  0
    3.7225  -10.2706   18.0472 C   0  0  0  0  0  0  0  0  0  0  0  0
   -0.5971  -11.3728   15.4038 C   0  0  0  0  0  0  0  0  0  0  0  0
    3.4464   -8.5668   16.1601 C   0  0  0  0  0  0  0  0  0  0  0  0
   -1.5215  -11.4628   13.2841 C   0  0  0  0  0  0  0  0  0  0  0  0
   10.1501   -2.8284   26.0843 N   0  0  0  0  0  0  0  0  0  0  0  0
    1.0624  -10.7172   18.0226 N   0  0  0  0  0  0  0  0  0  0  0  0
    4.6633   -8.2490   16.5927 N   0  0  0  0  0  0  0  0  0  0  0  0
   -1.3577  -12.0252   14.5148 C   0  0  0  0  0  0  0  0  0  0  0  0
    2.8759   -9.6153   17.0795 C   0  0  0  0  0  0  0  0  0  0  0  0
   10.3812   -3.4423   16.8730 C   0  0  0  0  0  0  0  0  0  0  0  0
    7.8564   -7.5571   17.8976 C   0  0  0  0  0  0  0  0  0  0  0  0
    4.9308  -10.2938   18.1110 O   0  0  0  0  0  0  0  0  0  0  0  0
    6.7167   -8.1494   17.7117 C   0  0  0  0  0  0  0  0  0  0  0  0
   10.8905   -4.4998   18.8357 C   0  0  0  0  0  0  0  0  0  0  0  0
   -0.2130   -9.6479   13.8876 C   0  0  0  0  0  0  0  0  0  0  0  0
    7.3690   -6.2909   15.9559 C   0  0  0  0  0  0  0  0  0  0  0  0
    8.2129   -6.4601   17.0550 C   0  0  0  0  0  0  0  0  0  0  0  0
    6.2528   -6.9290   15.8002 C   0  0  0  0  0  0  0  0  0  0  0  0
   11.0266   -3.4498   18.0283 C   0  0  0  0  0  0  0  0  0  0  0  0
    2.8917   -8.0495   15.1922 O   0  0  0  0  0  0  0  0  0  0  0  0
    7.8157   -3.2277   26.5076 C   0  0  0  0  0  0  0  0  0  0  0  0
    9.4845   -4.4266   16.4820 C   0  0  0  0  0  0  0  0  0  0  0  0
    1.8397  -11.2181   19.0171 C   0  0  0  0  0  0  0  0  0  0  0  0
    1.5449   -9.9336   17.0231 C   0  0  0  0  0  0  0  0  0  0  0  0
   -0.9907  -10.2905   12.9733 C   0  0  0  0  0  0  0  0  0  0  0  0
  1 10  4  0
  1 32  4  0
  2  8  4  0
  2 26  1  0
  2 31  4  0
  3  7  1  0
  3 33  1  0
  4  6  4  0
  4 14  4  0
  5 16  1  0
  5 22  4  0
  5 27  4  0
  6 30  4  0
  7 11  4  0
  7 24  4  0
  8 23  4  0
  9 14  4  0
  9 30  4  0
 10 18  4  0
 10 21  2  0
 11 17  4  0
 12 16  1  0
 12 18  1  0
 12 29  2  0
 13 17  4  0
 13 34  4  0
 15 32  4  0
 15 33  4  0
 18 33  4  0
 19 28  4  0
 19 31  4  0
 20 22  4  0
 20 26  4  0
 23 28  4  0
 24 34  4  0
 25 26  4  0
 25 27  4  0
M  END
$$$$

 Created by Python create_sdf_string function

 34 48  0  0  0  0  0  0  0  0999 V2000
    3.0378  -11.1230   18.8836 N   0  0  0  0  0  0  0  0  0  0  0  0
    9.0387   -5.4765   17.4731 C   0  0  0  0  0  0  0  0  0  0  0  0
    0.6930   -9.3916   15.8329 N   0  0  0  0  0  0  0  0  0  0  0  0
   10.1327   -3.7503   27.2891 C   0  0  0  0  0  0  0  0  0  0  0  0
    5.7501   -8.2841   16.0134 C   0  0  0  0  0  0  0  0  0  0  0  0
    8.7247   -3.9185   27.3647 N   0  0  0  0  0  0  0  0  0  0  0  0
   -0.2746  -10.1835   14.8787 C   0  0  0  0  0  0  0  0  0  0  0  0
    9.9817   -5.5335   18.4494 C   0  0  0  0  0  0  0  0  0  0  0  0
    4.3301  -10.8222   18.2695 C   0  0  0  0  0  0  0  0  0  0  0  0
    3.5136   -8.7014   16.3910 C   0  0  0  0  0  0  0  0  0  0  0  0
   -1.5392  -11.6692   12.8721 C   0  0  0  0  0  0  0  0  0  0  0  0
    9.7946   -2.8485   25.9927 N   0  0  0  0  0  0  0  0  0  0  0  0
    1.1379  -10.9383   18.1723 N   0  0  0  0  0  0  0  0  0  0  0  0
    5.3154   -7.8080   16.5898 F   0  0  0  0  0  0  0  0  0  0  0  0
   -1.2857  -11.9708   14.4402 C   0  0  0  0  0  0  0  0  0  0  0  0
    2.7237   -9.9873   17.1236 C   0  0  0  0  0  0  0  0  0  0  0  0
   10.6027   -3.4406   16.7887 C   0  0  0  0  0  0  0  0  0  0  0  0
    8.0510   -8.4624   17.5884 C   0  0  0  0  0  0  0  0  0  0  0  0
    4.5455   -9.8084   17.8693 N   0  0  0  0  0  0  0  0  0  0  0  0
    6.4985   -8.4983   17.7994 C   0  0  0  0  0  0  0  0  0  0  0  0
    0.1871   -9.5617   13.6750 C   0  0  0  0  0  0  0  0  0  0  0  0
    8.2444   -6.5478   17.1483 C   0  0  0  0  0  0  0  0  0  0  0  0
   10.9935   -3.4171   18.0691 C   0  0  0  0  0  0  0  0  0  0  0  0
    2.7939   -7.9968   15.0677 O   0  0  0  0  0  0  0  0  0  0  0  0
    7.8909   -3.5810   26.6763 C   0  0  0  0  0  0  0  0  0  0  0  0
    9.8045   -4.5615   16.2464 C   0  0  0  0  0  0  0  0  0  0  0  0
    1.7240  -11.0681   18.9726 C   0  0  0  0  0  0  0  0  0  0  0  0
    1.6212   -9.8412   17.1203 N   0  0  0  0  0  0  0  0  0  0  0  0
    8.6620   -2.6802   25.4105 He  0  0  0  0  0  0  0  0  0  0  0  0
   -0.7972  -11.3701   15.6894 He  0  0  0  0  0  0  0  0  0  0  0  0
   11.2065   -4.3815   19.0126 He  0  0  0  0  0  0  0  0  0  0  0  0
    7.6969   -6.1172   15.9168 He  0  0  0  0  0  0  0  0  0  0  0  0
    6.1817   -6.8124   15.4809 He  0  0  0  0  0  0  0  0  0  0  0  0
   -0.9174  -10.3316   13.3308 He  0  0  0  0  0  0  0  0  0  0  0  0
  1  9  4  0
  1 12  3  0
  1 19  3  0
  1 27  4  0
  1 28  4  0
  2  8  4  0
  2 26  4  0
  3  6  1  0
  3  7  1  0
  3 24  3  0
  3 25  4  0
  3 28  1  0
  4  6  4  0
  4 11  1  0
  4 12  4  0
  5  7  1  0
  5 16  4  0
  5 19  1  0
  5 20  4  0
  5 21  3  0
  5 28  3  0
  6 20  1  0
  6 25  4  0
  7 19  2  0
  7 21  4  0
  7 25  4  0
  9 12  3  0
 10 14  4  0
 10 24  2  0
 10 25  1  0
 11 15  4  0
 12 22  4  0
 12 28  4  0
 13 14  1  0
 13 18  3  0
 13 27  4  0
 13 28  4  0
 14 24  2  0
 16 18  1  0
 17 21  1  0
 17 23  4  0
 17 26  4  0
 18 20  4  0
 18 22  4  0
 19 23  3  0
 20 24  2  0
 20 27  4  0
 20 28  3  0
M  END
$$$$

 Created by Python create_sdf_string function

 34 37  0  0  0  0  0  0  0  0999 V2000
    3.0784  -11.1829   18.9364 N   0  0  0  0  0  0  0  0  0  0  0  0
    9.3129   -5.5827   17.3024 C   0  0  0  0  0  0  0  0  0  0  0  0
    0.7078   -9.4338   16.1038 N   0  0  0  0  0  0  0  0  0  0  0  0
   10.0631   -3.6534   27.1692 C   0  0  0  0  0  0  0  0  0  0  0  0
    5.9052   -8.0165   16.6281 C   0  0  0  0  0  0  0  0  0  0  0  0
    8.7440   -4.0319   27.5109 N   0  0  0  0  0  0  0  0  0  0  0  0
    0.0099  -10.1738   15.1246 C   0  0  0  0  0  0  0  0  0  0  0  0
    9.9534   -5.5477   18.5647 C   0  0  0  0  0  0  0  0  0  0  0  0
    8.6244   -2.7147   25.5885 N   0  0  0  0  0  0  0  0  0  0  0  0
    3.6783  -10.3276   18.0286 C   0  0  0  0  0  0  0  0  0  0  0  0
   -0.6738  -11.3855   15.3667 C   0  0  0  0  0  0  0  0  0  0  0  0
    3.4684   -8.7119   16.2773 C   0  0  0  0  0  0  0  0  0  0  0  0
   -1.4844  -11.5134   13.2116 C   0  0  0  0  0  0  0  0  0  0  0  0
   10.0161   -2.8707   25.9820 N   0  0  0  0  0  0  0  0  0  0  0  0
    1.0160  -10.7818   17.9988 N   0  0  0  0  0  0  0  0  0  0  0  0
    4.7171   -8.4511   16.5263 N   0  0  0  0  0  0  0  0  0  0  0  0
   -1.4215  -12.0063   14.4719 C   0  0  0  0  0  0  0  0  0  0  0  0
    2.8038   -9.7025   17.1344 C   0  0  0  0  0  0  0  0  0  0  0  0
   10.5807   -3.5330   16.8222 C   0  0  0  0  0  0  0  0  0  0  0  0
    8.0053   -7.6909   17.6905 C   0  0  0  0  0  0  0  0  0  0  0  0
    4.9194  -10.2943   18.1233 N   0  0  0  0  0  0  0  0  0  0  0  0
    6.9269   -8.3879   17.4764 C   0  0  0  0  0  0  0  0  0  0  0  0
   10.8013   -4.4847   18.9400 C   0  0  0  0  0  0  0  0  0  0  0  0
   -0.1004   -9.6916   13.8404 C   0  0  0  0  0  0  0  0  0  0  0  0
    7.3821   -6.2564   15.9584 C   0  0  0  0  0  0  0  0  0  0  0  0
    8.3015   -6.4961   16.9957 C   0  0  0  0  0  0  0  0  0  0  0  0
    6.2398   -6.9497   15.8253 C   0  0  0  0  0  0  0  0  0  0  0  0
   11.0725   -3.5227   18.0604 C   0  0  0  0  0  0  0  0  0  0  0  0
    2.9257   -8.0057   15.2384 O   0  0  0  0  0  0  0  0  0  0  0  0
    7.8352   -3.4859   26.5220 C   0  0  0  0  0  0  0  0  0  0  0  0
    9.6721   -4.5171   16.4405 C   0  0  0  0  0  0  0  0  0  0  0  0
    1.7819  -11.3590   18.9483 C   0  0  0  0  0  0  0  0  0  0  0  0
    1.5287   -9.9801   17.0539 C   0  0  0  0  0  0  0  0  0  0  0  0
   -0.8208  -10.3736   12.9024 C   0  0  0  0  0  0  0  0  0  0  0  0
  1 10  4  0
  1 32  4  0
  2  8  4  0
  2 26  1  0
  2 31  4  0
  3  7  1  0
  3 33  1  0
  4  6  4  0
  4 14  4  0
  5 16  1  0
  5 22  4  0
  5 27  4  0
  6 30  4  0
  7 11  4  0
  7 24  4  0
  8 23  4  0
  9 14  4  0
  9 30  4  0
 10 18  4  0
 10 21  4  0
 11 17  4  0
 12 16  4  0
 12 18  4  0
 12 29  2  0
 13 17  4  0
 13 34  4  0
 15 32  4  0
 15 33  4  0
 18 33  4  0
 19 28  4  0
 19 31  4  0
 20 22  4  0
 20 26  4  0
 23 28  4  0
 24 34  4  0
 25 26  4  0
 25 27  4  0
M  END
$$$$

 Created by Python create_sdf_string function

 34 75  0  0  0  0  0  0  0  0999 V2000
    3.1549  -11.2938   19.2486 N   0  0  0  0  0  0  0  0  0  0  0  0
    9.3779   -5.9003   17.3603 C   0  0  0  0  0  0  0  0  0  0  0  0
    0.5386   -9.3591   16.1387 N   0  0  0  0  0  0  0  0  0  0  0  0
   10.2561   -3.6587   27.1828 Cl  0  0  0  0  0  0  0  0  0  0  0  0
    6.1820   -8.5796   16.2021 C   0  0  0  0  0  0  0  0  0  0  0  0
    8.7005   -4.3068   27.4572 N   0  0  0  0  0  0  0  0  0  0  0  0
    0.1261  -10.2340   15.0967 C   0  0  0  0  0  0  0  0  0  0  0  0
    9.7229   -5.2232   18.5828 C   0  0  0  0  0  0  0  0  0  0  0  0
    8.7899   -2.7178   25.4942 N   0  0  0  0  0  0  0  0  0  0  0  0
    3.9414  -10.6596   17.9183 N   0  0  0  0  0  0  0  0  0  0  0  0
   -0.9455  -11.1255   15.6468 C   0  0  0  0  0  0  0  0  0  0  0  0
    3.3951   -9.3107   16.0029 C   0  0  0  0  0  0  0  0  0  0  0  0
   -1.7776  -11.2434   12.7342 C   0  0  0  0  0  0  0  0  0  0  0  0
    9.9398   -3.0762   26.2051 N   0  0  0  0  0  0  0  0  0  0  0  0
    1.1113  -11.0323   18.2751 N   0  0  0  0  0  0  0  0  0  0  0  0
    4.6165   -8.7235   16.1128 N   0  0  0  0  0  0  0  0  0  0  0  0
   -1.6207  -11.9938   14.8140 C   0  0  0  0  0  0  0  0  0  0  0  0
    2.7143   -9.6589   17.1085 C   0  0  0  0  0  0  0  0  0  0  0  0
   10.6264   -3.4528   16.7204 C   0  0  0  0  0  0  0  0  0  0  0  0
    8.4834   -7.9898   18.2591 Cl  0  0  0  0  0  0  0  0  0  0  0  0
    7.0037   -8.5018   17.4599 C   0  0  0  0  0  0  0  0  0  0  0  0
   10.9227   -4.6990   18.7379 C   0  0  0  0  0  0  0  0  0  0  0  0
   -0.0517   -9.4867   13.7699 C   0  0  0  0  0  0  0  0  0  0  0  0
    7.4164   -6.2793   15.7834 C   0  0  0  0  0  0  0  0  0  0  0  0
    8.0383   -6.4968   17.1931 C   0  0  0  0  0  0  0  0  0  0  0  0
    6.0066   -6.5112   16.7927 C   0  0  0  0  0  0  0  0  0  0  0  0
   11.2309   -3.3834   17.8410 C   0  0  0  0  0  0  0  0  0  0  0  0
    2.9489   -8.1614   15.1757 O   0  0  0  0  0  0  0  0  0  0  0  0
    7.9248   -3.1476   26.4344 C   0  0  0  0  0  0  0  0  0  0  0  0
    9.4227   -4.5205   16.6775 C   0  0  0  0  0  0  0  0  0  0  0  0
    1.3141  -10.0587   17.2559 C   0  0  0  0  0  0  0  0  0  0  0  0
   -0.7303  -10.5808   12.9741 C   0  0  0  0  0  0  0  0  0  0  0  0
    5.3930   -9.5215   17.9977 He  0  0  0  0  0  0  0  0  0  0  0  0
    1.8962  -11.3558   18.9473 He  0  0  0  0  0  0  0  0  0  0  0  0
  1 10  4  0
  1 16  2  0
  1 18  4  0
  2  5  1  0
  2  8  4  0
  2 12  1  0
  2 25  1  0
  2 28  4  0
  2 30  4  0
  3 14  3  0
  3 15  2  0
  3 30  4  0
  3 31  1  0
  4  6  4  0
  4 14  4  0
  4 19  2  0
  4 22  2  0
  4 26  3  0
  5 13  3  0
  5 16  1  0
  5 18  1  0
  5 21  4  0
  5 26  4  0
  5 30  1  0
  6 21  3  0
  6 26  4  0
  6 32  1  0
  7 11  4  0
  7 20  3  0
  7 23  4  0
  7 27  4  0
  8 15  1  0
  8 16  4  0
  8 22  4  0
  8 26  4  0
  8 30  1  0
  9 14  4  0
  9 23  3  0
  9 29  4  0
 10 15  3  0
 10 30  1  0
 11 17  4  0
 11 25  2  0
 12 16  4  0
 12 19  2  0
 12 25  1  0
 13 17  4  0
 13 32  4  0
 14 20  1  0
 15 28  4  0
 15 31  4  0
 16 21  3  0
 16 29  2  0
 16 32  2  0
 17 32  2  0
 18 22  4  0
 18 31  4  0
 19 27  4  0
 19 28  4  0
 19 30  4  0
 20 21  4  0
 20 25  4  0
 20 27  2  0
 20 31  3  0
 22 24  2  0
 22 26  1  0
 22 31  4  0
 23 32  4  0
 24 25  4  0
 24 26  4  0
 24 32  4  0
 25 26  1  0
 26 28  1  0
 27 28  1  0
 28 30  1  0
M  END
$$$$

 Created by Python create_sdf_string function

 34 38  0  0  0  0  0  0  0  0999 V2000
    3.2067  -11.1620   19.0016 N   0  0  0  0  0  0  0  0  0  0  0  0
    9.2359   -5.5847   17.3916 C   0  0  0  0  0  0  0  0  0  0  0  0
    0.6163   -9.4986   16.2578 N   0  0  0  0  0  0  0  0  0  0  0  0
   10.0957   -3.7941   27.1563 N   0  0  0  0  0  0  0  0  0  0  0  0
    5.9750   -8.1916   16.7330 C   0  0  0  0  0  0  0  0  0  0  0  0
    8.6944   -4.0494   27.4095 N   0  0  0  0  0  0  0  0  0  0  0  0
   -0.0714  -10.1805   15.2423 C   0  0  0  0  0  0  0  0  0  0  0  0
    9.9862   -5.5109   18.5979 C   0  0  0  0  0  0  0  0  0  0  0  0
    8.7971   -2.6421   25.5590 N   0  0  0  0  0  0  0  0  0  0  0  0
    3.6941  -10.3499   18.0689 C   0  0  0  0  0  0  0  0  0  0  0  0
   -0.9267  -11.2574   15.4822 C   0  0  0  0  0  0  0  0  0  0  0  0
    3.5108   -8.9530   16.2042 C   0  0  0  0  0  0  0  0  0  0  0  0
   -1.5978  -11.4260   13.2675 C   0  0  0  0  0  0  0  0  0  0  0  0
   10.1508   -2.9640   26.0174 N   0  0  0  0  0  0  0  0  0  0  0  0
    1.0770  -10.9115   18.1676 N   0  0  0  0  0  0  0  0  0  0  0  0
    4.8742   -8.7996   16.6684 N   0  0  0  0  0  0  0  0  0  0  0  0
   -1.6633  -11.8438   14.5891 C   0  0  0  0  0  0  0  0  0  0  0  0
    2.8521   -9.8465   17.1370 C   0  0  0  0  0  0  0  0  0  0  0  0
   10.5345   -3.5896   16.7314 C   0  0  0  0  0  0  0  0  0  0  0  0
    8.1026   -7.7533   17.7290 C   0  0  0  0  0  0  0  0  0  0  0  0
    4.9405  -10.0774   17.9990 N   0  0  0  0  0  0  0  0  0  0  0  0
    7.0024   -8.5748   17.5699 C   0  0  0  0  0  0  0  0  0  0  0  0
   10.8982   -4.4627   18.8639 C   0  0  0  0  0  0  0  0  0  0  0  0
   -0.0298   -9.7870   13.8925 C   0  0  0  0  0  0  0  0  0  0  0  0
    7.1279   -6.2783   16.2367 C   0  0  0  0  0  0  0  0  0  0  0  0
    8.1896   -6.4853   17.1367 C   0  0  0  0  0  0  0  0  0  0  0  0
    6.1755   -7.0648   15.9715 C   0  0  0  0  0  0  0  0  0  0  0  0
   11.1344   -3.5497   17.9162 C   0  0  0  0  0  0  0  0  0  0  0  0
    2.9803   -8.3947   15.2144 O   0  0  0  0  0  0  0  0  0  0  0  0
    7.9028   -3.3151   26.4241 C   0  0  0  0  0  0  0  0  0  0  0  0
    9.5495   -4.5500   16.5098 C   0  0  0  0  0  0  0  0  0  0  0  0
    1.9320  -11.4102   19.0461 C   0  0  0  0  0  0  0  0  0  0  0  0
    1.5220  -10.1051   17.1424 C   0  0  0  0  0  0  0  0  0  0  0  0
   -0.7981  -10.3627   12.9149 C   0  0  0  0  0  0  0  0  0  0  0  0
  1 10  4  0
  1 32  4  0
  2  8  4  0
  2 26  1  0
  2 31  4  0
  3  7  1  0
  3 33  1  0
  4  6  4  0
  4 14  4  0
  5 16  1  0
  5 22  4  0
  5 27  4  0
  6 30  4  0
  7 11  4  0
  7 24  4  0
  8 23  4  0
  9 14  4  0
  9 30  4  0
 10 18  4  0
 10 21  4  0
 11 17  4  0
 12 16  4  0
 12 18  4  0
 12 29  2  0
 13 17  4  0
 13 34  4  0
 15 32  4  0
 15 33  4  0
 16 21  4  0
 18 33  4  0
 19 28  4  0
 19 31  4  0
 20 22  4  0
 20 26  4  0
 23 28  4  0
 24 34  4  0
 25 26  4  0
 25 27  4  0
M  END
$$$$

 Created by Python create_sdf_string function

 34 60  0  0  0  0  0  0  0  0999 V2000
    3.1810  -11.3036   19.4030 N   0  0  0  0  0  0  0  0  0  0  0  0
   10.2680   -4.2398   27.0569 N   0  0  0  0  0  0  0  0  0  0  0  0
    5.8075   -8.6529   17.0947 C   0  0  0  0  0  0  0  0  0  0  0  0
    8.8242   -4.0329   27.1769 N   0  0  0  0  0  0  0  0  0  0  0  0
   -0.0217  -10.3367   15.1717 C   0  0  0  0  0  0  0  0  0  0  0  0
   10.1008   -5.2989   18.3766 C   0  0  0  0  0  0  0  0  0  0  0  0
    8.8183   -2.7115   25.6776 N   0  0  0  0  0  0  0  0  0  0  0  0
    3.6873   -9.9558   18.2161 C   0  0  0  0  0  0  0  0  0  0  0  0
   -1.1877  -10.9594   15.3995 C   0  0  0  0  0  0  0  0  0  0  0  0
    3.0386   -9.0048   16.1674 C   0  0  0  0  0  0  0  0  0  0  0  0
   -1.6431  -11.6599   13.6376 C   0  0  0  0  0  0  0  0  0  0  0  0
   10.0237   -2.6531   25.7732 N   0  0  0  0  0  0  0  0  0  0  0  0
    4.9775   -8.6606   16.8974 N   0  0  0  0  0  0  0  0  0  0  0  0
   -1.5557  -11.9952   14.6187 C   0  0  0  0  0  0  0  0  0  0  0  0
    2.9930   -9.9709   17.3012 N   0  0  0  0  0  0  0  0  0  0  0  0
   10.4667   -3.5871   16.6291 C   0  0  0  0  0  0  0  0  0  0  0  0
    7.8894   -7.3341   17.2916 O   0  0  0  0  0  0  0  0  0  0  0  0
    6.8316   -8.7370   17.4612 C   0  0  0  0  0  0  0  0  0  0  0  0
   11.2790   -4.4337   18.9525 C   0  0  0  0  0  0  0  0  0  0  0  0
   -0.0805   -9.5900   13.8946 C   0  0  0  0  0  0  0  0  0  0  0  0
    7.2236   -6.2110   16.1042 C   0  0  0  0  0  0  0  0  0  0  0  0
    8.2380   -6.4357   17.0513 C   0  0  0  0  0  0  0  0  0  0  0  0
    6.6105   -7.1674   15.5212 C   0  0  0  0  0  0  0  0  0  0  0  0
   10.9193   -3.8004   17.9434 C   0  0  0  0  0  0  0  0  0  0  0  0
    3.3116   -8.0185   15.2185 O   0  0  0  0  0  0  0  0  0  0  0  0
    7.7566   -3.0761   26.8309 C   0  0  0  0  0  0  0  0  0  0  0  0
    9.6420   -4.4900   16.6358 B   0  0  0  0  0  0  0  0  0  0  0  0
    2.3145  -11.5082   19.0432 C   0  0  0  0  0  0  0  0  0  0  0  0
    1.7657   -9.9483   16.9105 C   0  0  0  0  0  0  0  0  0  0  0  0
   -0.7667  -10.4823   13.0142 C   0  0  0  0  0  0  0  0  0  0  0  0
    9.1179   -5.7334   17.6111 He  0  0  0  0  0  0  0  0  0  0  0  0
    0.4624   -9.5110   16.2700 He  0  0  0  0  0  0  0  0  0  0  0  0
    0.6716  -10.7255   18.1765 He  0  0  0  0  0  0  0  0  0  0  0  0
    4.7096  -10.1059   17.7424 He  0  0  0  0  0  0  0  0  0  0  0  0
  1  5  2  0
  1  8  4  0
  1 17  3  0
  1 28  4  0
  2 12  4  0
  2 14  2  0
  2 25  3  0
  2 26  3  0
  2 27  1  0
  3 10  3  0
  3 13  1  0
  3 22  2  0
  3 23  2  0
  4 26  4  0
  5  9  4  0
  5 12  4  0
  5 13  3  0
  5 20  4  0
  6 19  4  0
  6 20  1  0
  7 10  1  0
  7 12  4  0
  7 17  2  0
  7 26  4  0
  7 29  4  0
  8 10  3  0
  8 22  1  0
  8 24  2  0
  8 27  4  0
  8 28  2  0
  9 11  3  0
  9 14  4  0
  9 30  4  0
 10 13  4  0
 10 15  4  0
 10 25  2  0
 10 30  1  0
 11 12  1  0
 11 14  4  0
 11 26  4  0
 11 30  4  0
 12 23  4  0
 13 15  4  0
 13 29  2  0
 15 24  4  0
 15 28  2  0
 15 29  4  0
 16 23  2  0
 16 24  4  0
 16 27  4  0
 18 24  4  0
 18 29  2  0
 19 23  3  0
 19 24  4  0
 20 30  4  0
 21 22  4  0
 21 23  4  0
 22 29  1  0
 24 28  4  0
 25 29  2  0
M  END
$$$$

 Created by Python create_sdf_string function

 34 38  0  0  0  0  0  0  0  0999 V2000
    3.1194  -11.1761   19.0472 N   0  0  0  0  0  0  0  0  0  0  0  0
    9.2247   -5.5467   17.3165 C   0  0  0  0  0  0  0  0  0  0  0  0
    0.5762   -9.4073   16.2736 C   0  0  0  0  0  0  0  0  0  0  0  0
   10.1229   -3.9435   26.8490 N   0  0  0  0  0  0  0  0  0  0  0  0
    6.0234   -8.2288   16.7539 C   0  0  0  0  0  0  0  0  0  0  0  0
    8.7629   -4.0992   27.3621 N   0  0  0  0  0  0  0  0  0  0  0  0
   -0.1563  -10.1411   15.2622 C   0  0  0  0  0  0  0  0  0  0  0  0
   10.0204   -5.5331   18.5452 C   0  0  0  0  0  0  0  0  0  0  0  0
    8.7216   -2.5035   25.6811 N   0  0  0  0  0  0  0  0  0  0  0  0
    3.5883  -10.2959   18.0790 C   0  0  0  0  0  0  0  0  0  0  0  0
   -1.0103  -11.2162   15.5851 C   0  0  0  0  0  0  0  0  0  0  0  0
    3.5288   -8.8565   16.3360 C   0  0  0  0  0  0  0  0  0  0  0  0
   -1.5512  -11.5333   13.3592 C   0  0  0  0  0  0  0  0  0  0  0  0
   10.0905   -2.9583   25.8296 N   0  0  0  0  0  0  0  0  0  0  0  0
    0.9938  -10.9537   18.1863 N   0  0  0  0  0  0  0  0  0  0  0  0
    4.8460   -8.9512   16.9423 N   0  0  0  0  0  0  0  0  0  0  0  0
   -1.6918  -11.8903   14.6807 C   0  0  0  0  0  0  0  0  0  0  0  0
    2.7804   -9.7240   17.1477 C   0  0  0  0  0  0  0  0  0  0  0  0
   10.5056   -3.5485   16.7601 C   0  0  0  0  0  0  0  0  0  0  0  0
    8.0423   -7.6365   17.7743 C   0  0  0  0  0  0  0  0  0  0  0  0
    4.8294   -9.8513   17.9498 N   0  0  0  0  0  0  0  0  0  0  0  0
    7.1148   -8.4801   17.5792 C   0  0  0  0  0  0  0  0  0  0  0  0
   10.9479   -4.5645   18.8355 C   0  0  0  0  0  0  0  0  0  0  0  0
   -0.0769   -9.7767   13.9449 C   0  0  0  0  0  0  0  0  0  0  0  0
    7.2422   -6.3785   16.0119 C   0  0  0  0  0  0  0  0  0  0  0  0
    8.2270   -6.4961   17.0503 C   0  0  0  0  0  0  0  0  0  0  0  0
    6.1556   -7.1559   15.9126 C   0  0  0  0  0  0  0  0  0  0  0  0
   11.1471   -3.6017   17.9376 C   0  0  0  0  0  0  0  0  0  0  0  0
    3.2230   -8.1752   15.3424 O   0  0  0  0  0  0  0  0  0  0  0  0
    7.9329   -3.1927   26.6432 C   0  0  0  0  0  0  0  0  0  0  0  0
    9.5099   -4.4739   16.4687 C   0  0  0  0  0  0  0  0  0  0  0  0
    1.8377  -11.4513   19.1207 C   0  0  0  0  0  0  0  0  0  0  0  0
    1.4885  -10.0353   17.1623 C   0  0  0  0  0  0  0  0  0  0  0  0
   -0.7865  -10.4786   12.9794 C   0  0  0  0  0  0  0  0  0  0  0  0
  1 10  4  0
  1 32  4  0
  2  8  4  0
  2 26  1  0
  2 31  4  0
  3  7  1  0
  3 33  1  0
  4  6  4  0
  4 14  4  0
  5 16  1  0
  5 22  4  0
  5 27  4  0
  6 30  4  0
  7 11  4  0
  7 24  4  0
  8 23  4  0
  9 14  4  0
  9 30  4  0
 10 18  4  0
 10 21  4  0
 11 17  4  0
 12 16  4  0
 12 18  4  0
 12 29  2  0
 13 17  4  0
 13 34  4  0
 15 32  4  0
 15 33  4  0
 16 21  4  0
 18 33  4  0
 19 28  4  0
 19 31  4  0
 20 22  4  0
 20 26  4  0
 23 28  4  0
 24 34  4  0
 25 26  4  0
 25 27  4  0
M  END
$$$$

 Created by Python create_sdf_string function

 34 46  0  0  0  0  0  0  0  0999 V2000
    3.1291  -10.9151   19.0596 N   0  0  0  0  0  0  0  0  0  0  0  0
    8.8711   -5.5464   17.2876 C   0  0  0  0  0  0  0  0  0  0  0  0
    0.5472   -9.6837   16.3088 C   0  0  0  0  0  0  0  0  0  0  0  0
   10.3087   -3.9241   26.6810 N   0  0  0  0  0  0  0  0  0  0  0  0
    5.5434   -8.3961   16.7914 C   0  0  0  0  0  0  0  0  0  0  0  0
    8.9506   -3.9573   27.7375 N   0  0  0  0  0  0  0  0  0  0  0  0
   -0.3462  -10.1676   15.0649 C   0  0  0  0  0  0  0  0  0  0  0  0
    9.9928   -5.4060   18.7380 C   0  0  0  0  0  0  0  0  0  0  0  0
    8.8482   -2.5443   25.4726 N   0  0  0  0  0  0  0  0  0  0  0  0
    3.7867  -10.7580   17.9516 C   0  0  0  0  0  0  0  0  0  0  0  0
    3.9042   -8.3008   16.5467 F   0  0  0  0  0  0  0  0  0  0  0  0
   -1.5649  -11.6969   13.3829 C   0  0  0  0  0  0  0  0  0  0  0  0
   10.2405   -2.7955   25.5773 N   0  0  0  0  0  0  0  0  0  0  0  0
   -1.6174  -11.8700   14.6960 C   0  0  0  0  0  0  0  0  0  0  0  0
    2.9061   -9.8768   17.1526 C   0  0  0  0  0  0  0  0  0  0  0  0
   10.5727   -3.4282   16.6905 C   0  0  0  0  0  0  0  0  0  0  0  0
    7.7067   -7.9907   17.2281 C   0  0  0  0  0  0  0  0  0  0  0  0
    5.7083  -10.2697   18.1562 N   0  0  0  0  0  0  0  0  0  0  0  0
    7.1477   -8.7988   17.3958 C   0  0  0  0  0  0  0  0  0  0  0  0
   10.8176   -4.4635   18.5553 C   0  0  0  0  0  0  0  0  0  0  0  0
   -0.1225   -9.8425   13.7745 C   0  0  0  0  0  0  0  0  0  0  0  0
    7.3755   -6.5645   16.2055 C   0  0  0  0  0  0  0  0  0  0  0  0
    8.1875   -6.5219   16.7313 C   0  0  0  0  0  0  0  0  0  0  0  0
   11.1177   -3.5521   18.1836 C   0  0  0  0  0  0  0  0  0  0  0  0
    3.1733   -8.1721   15.5857 O   0  0  0  0  0  0  0  0  0  0  0  0
    7.8093   -3.1181   26.8944 C   0  0  0  0  0  0  0  0  0  0  0  0
    9.5156   -4.7086   16.5052 C   0  0  0  0  0  0  0  0  0  0  0  0
    1.7780  -11.5174   18.9610 C   0  0  0  0  0  0  0  0  0  0  0  0
   -0.6875  -10.3121   13.0314 C   0  0  0  0  0  0  0  0  0  0  0  0
   -1.1422  -11.2286   15.7527 He  0  0  0  0  0  0  0  0  0  0  0  0
    1.2217  -11.0639   18.4411 He  0  0  0  0  0  0  0  0  0  0  0  0
    4.9486   -9.1494   16.6520 He  0  0  0  0  0  0  0  0  0  0  0  0
    6.2993   -7.5513   15.4233 He  0  0  0  0  0  0  0  0  0  0  0  0
    1.2808  -10.3104   17.1466 He  0  0  0  0  0  0  0  0  0  0  0  0
  1  8  4  0
  1 10  4  0
  1 12  1  0
  1 26  1  0
  1 28  4  0
  2  3  4  0
  2 23  1  0
  2 27  4  0
  3  9  1  0
  4  6  4  0
  4 12  1  0
  4 13  4  0
  4 20  4  0
  5 11  4  0
  5 19  1  0
  6 26  4  0
  7 10  2  0
  7 21  4  0
  8 13  2  0
  8 20  4  0
  8 24  1  0
  8 29  1  0
  9 13  4  0
  9 26  1  0
 10 15  4  0
 10 17  4  0
 10 18  4  0
 11 25  4  0
 12 14  4  0
 12 20  3  0
 12 29  4  0
 13 16  1  0
 13 18  2  0
 13 26  3  0
 15 18  4  0
 16 18  3  0
 16 24  4  0
 16 26  1  0
 16 27  4  0
 17 19  4  0
 17 23  4  0
 17 25  1  0
 19 24  4  0
 20 24  4  0
 21 29  4  0
 22 23  4  0
M  END
$$$$

 Created by Python create_sdf_string function

 34 38  0  0  0  0  0  0  0  0999 V2000
    3.2115  -11.3114   19.0150 N   0  0  0  0  0  0  0  0  0  0  0  0
    9.1678   -5.6117   17.2259 C   0  0  0  0  0  0  0  0  0  0  0  0
    0.6832   -9.5485   16.3006 C   0  0  0  0  0  0  0  0  0  0  0  0
   10.2790   -3.8333   26.7744 N   0  0  0  0  0  0  0  0  0  0  0  0
    6.0982   -8.3215   16.7067 C   0  0  0  0  0  0  0  0  0  0  0  0
    9.0063   -3.9093   27.4868 N   0  0  0  0  0  0  0  0  0  0  0  0
   -0.1585  -10.2331   15.2893 C   0  0  0  0  0  0  0  0  0  0  0  0
    9.8402   -5.5863   18.5222 C   0  0  0  0  0  0  0  0  0  0  0  0
    8.7256   -2.5235   25.6115 N   0  0  0  0  0  0  0  0  0  0  0  0
    3.6860  -10.4396   18.1210 C   0  0  0  0  0  0  0  0  0  0  0  0
   -1.0250  -11.2709   15.6293 C   0  0  0  0  0  0  0  0  0  0  0  0
    3.5714   -8.8622   16.3954 C   0  0  0  0  0  0  0  0  0  0  0  0
   -1.5735  -11.5689   13.3769 C   0  0  0  0  0  0  0  0  0  0  0  0
   10.1071   -2.9714   25.6473 N   0  0  0  0  0  0  0  0  0  0  0  0
    1.0700  -11.0034   18.2004 N   0  0  0  0  0  0  0  0  0  0  0  0
    5.0184   -9.0316   16.9805 N   0  0  0  0  0  0  0  0  0  0  0  0
   -1.7203  -11.9267   14.6994 C   0  0  0  0  0  0  0  0  0  0  0  0
    2.9083   -9.7782   17.2140 C   0  0  0  0  0  0  0  0  0  0  0  0
   10.4665   -3.6129   16.7483 C   0  0  0  0  0  0  0  0  0  0  0  0
    8.0957   -7.7763   17.5933 C   0  0  0  0  0  0  0  0  0  0  0  0
    4.9990  -10.0770   17.9569 N   0  0  0  0  0  0  0  0  0  0  0  0
    7.0974   -8.6162   17.4091 C   0  0  0  0  0  0  0  0  0  0  0  0
   10.6980   -4.5683   18.8690 C   0  0  0  0  0  0  0  0  0  0  0  0
   -0.0846   -9.8332   13.9776 C   0  0  0  0  0  0  0  0  0  0  0  0
    7.2462   -6.4378   15.9160 C   0  0  0  0  0  0  0  0  0  0  0  0
    8.2372   -6.5822   16.9126 C   0  0  0  0  0  0  0  0  0  0  0  0
    6.1474   -7.2025   15.8627 C   0  0  0  0  0  0  0  0  0  0  0  0
   11.0263   -3.6140   17.9821 C   0  0  0  0  0  0  0  0  0  0  0  0
    3.2363   -8.0774   15.6295 O   0  0  0  0  0  0  0  0  0  0  0  0
    8.0380   -3.1196   26.7340 C   0  0  0  0  0  0  0  0  0  0  0  0
    9.4869   -4.5504   16.4001 C   0  0  0  0  0  0  0  0  0  0  0  0
    1.9180  -11.5309   19.1275 C   0  0  0  0  0  0  0  0  0  0  0  0
    1.5413  -10.1274   17.2397 C   0  0  0  0  0  0  0  0  0  0  0  0
   -0.7822  -10.5164   13.0016 C   0  0  0  0  0  0  0  0  0  0  0  0
  1 10  4  0
  1 32  4  0
  2  8  4  0
  2 26  1  0
  2 31  4  0
  3  7  1  0
  3 33  1  0
  4  6  4  0
  4 14  4  0
  5 16  1  0
  5 22  4  0
  5 27  4  0
  6 30  4  0
  7 11  4  0
  7 24  4  0
  8 23  4  0
  9 14  4  0
  9 30  4  0
 10 18  4  0
 10 21  4  0
 11 17  4  0
 12 16  4  0
 12 18  4  0
 12 29  2  0
 13 17  4  0
 13 34  4  0
 15 32  4  0
 15 33  4  0
 16 21  4  0
 18 33  4  0
 19 28  4  0
 19 31  4  0
 20 22  4  0
 20 26  4  0
 23 28  4  0
 24 34  4  0
 25 26  4  0
 25 27  4  0
M  END
$$$$

 Created by Python create_sdf_string function

 34 77  0  0  0  0  0  0  0  0999 V2000
    3.2595  -11.0981   19.2595 N   0  0  0  0  0  0  0  0  0  0  0  0
    9.3581   -5.5323   17.4583 C   0  0  0  0  0  0  0  0  0  0  0  0
    0.7787   -9.6083   16.4054 C   0  0  0  0  0  0  0  0  0  0  0  0
   10.3300   -3.6489   26.7327 N   0  0  0  0  0  0  0  0  0  0  0  0
    6.1104   -8.1661   16.5113 C   0  0  0  0  0  0  0  0  0  0  0  0
    8.7919   -3.8341   27.6539 N   0  0  0  0  0  0  0  0  0  0  0  0
   -0.3469  -10.1045   15.4807 Cl  0  0  0  0  0  0  0  0  0  0  0  0
    9.6556   -5.5614   18.2986 C   0  0  0  0  0  0  0  0  0  0  0  0
    8.5372   -2.4784   25.8758 N   0  0  0  0  0  0  0  0  0  0  0  0
    3.6136  -10.0031   18.3820 O   0  0  0  0  0  0  0  0  0  0  0  0
   -0.8902  -11.5235   15.3844 C   0  0  0  0  0  0  0  0  0  0  0  0
    3.4655   -9.0209   17.2721 C   0  0  0  0  0  0  0  0  0  0  0  0
   -1.5259  -11.6753   13.4453 C   0  0  0  0  0  0  0  0  0  0  0  0
    9.9850   -3.0210   25.6432 N   0  0  0  0  0  0  0  0  0  0  0  0
    0.8956  -11.0792   17.9945 N   0  0  0  0  0  0  0  0  0  0  0  0
    5.1042   -8.5279   16.9967 N   0  0  0  0  0  0  0  0  0  0  0  0
   -1.7390  -11.9500   14.9159 C   0  0  0  0  0  0  0  0  0  0  0  0
    2.9756   -9.7054   17.3888 C   0  0  0  0  0  0  0  0  0  0  0  0
   10.3915   -3.5736   16.9278 C   0  0  0  0  0  0  0  0  0  0  0  0
    8.2954   -8.2934   17.6292 C   0  0  0  0  0  0  0  0  0  0  0  0
    4.9751  -10.5100   18.1466 N   0  0  0  0  0  0  0  0  0  0  0  0
    7.2368   -8.5352   17.4406 C   0  0  0  0  0  0  0  0  0  0  0  0
   10.5414   -4.4594   18.9094 C   0  0  0  0  0  0  0  0  0  0  0  0
   -0.1485   -9.6203   14.2250 C   0  0  0  0  0  0  0  0  0  0  0  0
    7.2625   -6.4771   16.4134 C   0  0  0  0  0  0  0  0  0  0  0  0
    8.1789   -6.7367   17.0566 C   0  0  0  0  0  0  0  0  0  0  0  0
    6.4577   -7.1645   15.8255 C   0  0  0  0  0  0  0  0  0  0  0  0
    3.1879   -8.1483   15.5632 O   0  0  0  0  0  0  0  0  0  0  0  0
    7.9602   -3.1681   26.9076 C   0  0  0  0  0  0  0  0  0  0  0  0
    9.5241   -4.4903   16.3098 C   0  0  0  0  0  0  0  0  0  0  0  0
    2.1732  -11.4508   18.8439 C   0  0  0  0  0  0  0  0  0  0  0  0
    1.5921  -10.2893   17.3599 C   0  0  0  0  0  0  0  0  0  0  0  0
   -0.8774  -10.3245   13.0673 C   0  0  0  0  0  0  0  0  0  0  0  0
   11.1501   -3.4234   17.8594 He  0  0  0  0  0  0  0  0  0  0  0  0
  1 10  4  0
  1 31  4  0
  1 33  2  0
  2  3  1  0
  2  8  4  0
  2 10  2  0
  2 21  4  0
  2 30  4  0
  3  7  1  0
  3 12  1  0
  3 21  2  0
  3 32  1  0
  3 33  4  0
  4  6  4  0
  4 14  4  0
  4 24  2  0
  4 29  3  0
  5  6  4  0
  5 13  1  0
  5 16  1  0
  5 22  4  0
  5 23  3  0
  6  8  1  0
  6 21  1  0
  6 27  3  0
  6 29  4  0
  6 32  3  0
  6 33  2  0
  7 10  3  0
  7 11  4  0
  7 12  3  0
  7 24  4  0
  7 26  3  0
  7 28  4  0
  8 10  4  0
  8 23  4  0
  8 30  3  0
  9 12  1  0
  9 14  4  0
  9 17  2  0
  9 22  4  0
  9 23  2  0
  9 29  4  0
  9 30  1  0
 10 12  3  0
 10 14  3  0
 10 17  2  0
 11 12  3  0
 11 17  4  0
 12 17  1  0
 12 18  4  0
 12 33  2  0
 13 16  1  0
 13 17  4  0
 13 33  4  0
 14 19  2  0
 14 25  1  0
 15 31  4  0
 15 32  4  0
 16 21  4  0
 16 32  2  0
 18 32  4  0
 19 27  2  0
 19 30  4  0
 19 32  1  0
 20 22  4  0
 20 23  2  0
 20 26  2  0
 21 31  4  0
 22 27  4  0
 22 30  4  0
 23 27  4  0
 23 29  1  0
 24 30  1  0
 24 33  4  0
 27 33  1  0
 32 33  2  0
M  END
$$$$

 Created by Python create_sdf_string function

 34 38  0  0  0  0  0  0  0  0999 V2000
    3.2041  -11.3202   19.1470 N   0  0  0  0  0  0  0  0  0  0  0  0
    9.2389   -5.5961   17.3228 C   0  0  0  0  0  0  0  0  0  0  0  0
    0.6546   -9.5717   16.4352 N   0  0  0  0  0  0  0  0  0  0  0  0
   10.2078   -3.7324   26.8214 N   0  0  0  0  0  0  0  0  0  0  0  0
    6.1060   -8.3092   16.8897 C   0  0  0  0  0  0  0  0  0  0  0  0
    8.9839   -3.8536   27.5844 N   0  0  0  0  0  0  0  0  0  0  0  0
   -0.1611  -10.2519   15.3960 C   0  0  0  0  0  0  0  0  0  0  0  0
    9.8952   -5.4987   18.6068 C   0  0  0  0  0  0  0  0  0  0  0  0
    8.5398   -2.5285   25.7439 N   0  0  0  0  0  0  0  0  0  0  0  0
    3.6856  -10.4031   18.2605 C   0  0  0  0  0  0  0  0  0  0  0  0
   -0.9438  -11.3974   15.6615 C   0  0  0  0  0  0  0  0  0  0  0  0
    3.5787   -8.8552   16.5905 C   0  0  0  0  0  0  0  0  0  0  0  0
   -1.6165  -11.4972   13.4487 C   0  0  0  0  0  0  0  0  0  0  0  0
    9.9397   -2.9440   25.6875 N   0  0  0  0  0  0  0  0  0  0  0  0
    1.1032  -11.1209   18.2053 N   0  0  0  0  0  0  0  0  0  0  0  0
    4.9295   -9.0399   17.1781 N   0  0  0  0  0  0  0  0  0  0  0  0
   -1.6202  -12.0183   14.7281 C   0  0  0  0  0  0  0  0  0  0  0  0
    2.8648   -9.8218   17.3686 C   0  0  0  0  0  0  0  0  0  0  0  0
   10.4779   -3.5534   16.7643 C   0  0  0  0  0  0  0  0  0  0  0  0
    8.3131   -7.8588   17.5717 C   0  0  0  0  0  0  0  0  0  0  0  0
    4.9104   -9.9724   18.1598 N   0  0  0  0  0  0  0  0  0  0  0  0
    7.2658   -8.6805   17.4864 C   0  0  0  0  0  0  0  0  0  0  0  0
   10.7200   -4.4123   18.9189 C   0  0  0  0  0  0  0  0  0  0  0  0
   -0.1668   -9.7475   14.1138 C   0  0  0  0  0  0  0  0  0  0  0  0
    7.2274   -6.4120   16.1022 C   0  0  0  0  0  0  0  0  0  0  0  0
    8.3045   -6.5925   16.9995 C   0  0  0  0  0  0  0  0  0  0  0  0
    6.1697   -7.1708   16.1026 C   0  0  0  0  0  0  0  0  0  0  0  0
   10.9736   -3.4535   18.0040 C   0  0  0  0  0  0  0  0  0  0  0  0
    3.1656   -8.0824   15.8001 O   0  0  0  0  0  0  0  0  0  0  0  0
    7.9764   -3.1298   26.8998 C   0  0  0  0  0  0  0  0  0  0  0  0
    9.5745   -4.5586   16.4370 C   0  0  0  0  0  0  0  0  0  0  0  0
    1.9316  -11.6223   19.1276 C   0  0  0  0  0  0  0  0  0  0  0  0
    1.5671  -10.1714   17.3211 C   0  0  0  0  0  0  0  0  0  0  0  0
   -0.9168  -10.3631   13.1248 C   0  0  0  0  0  0  0  0  0  0  0  0
  1 10  4  0
  1 32  4  0
  2  8  4  0
  2 26  1  0
  2 31  4  0
  3  7  1  0
  3 33  1  0
  4  6  4  0
  4 14  4  0
  5 16  1  0
  5 22  4  0
  5 27  4  0
  6 30  4  0
  7 11  4  0
  7 24  4  0
  8 23  4  0
  9 14  4  0
  9 30  4  0
 10 18  4  0
 10 21  4  0
 11 17  4  0
 12 16  4  0
 12 18  4  0
 12 29  2  0
 13 17  4  0
 13 34  4  0
 15 32  4  0
 15 33  4  0
 16 21  4  0
 18 33  4  0
 19 28  4  0
 19 31  4  0
 20 22  4  0
 20 26  4  0
 23 28  4  0
 24 34  4  0
 25 26  4  0
 25 27  4  0
M  END
$$$$

 Created by Python create_sdf_string function

 34 77  0  0  0  0  0  0  0  0999 V2000
    3.1956  -11.3407   19.4242 N   0  0  0  0  0  0  0  0  0  0  0  0
    9.2280   -5.4903   17.2259 C   0  0  0  0  0  0  0  0  0  0  0  0
    0.6707   -9.4274   16.3716 N   0  0  0  0  0  0  0  0  0  0  0  0
   10.3263   -3.7328   26.5473 N   0  0  0  0  0  0  0  0  0  0  0  0
    6.1103   -8.3144   16.5889 Cl  0  0  0  0  0  0  0  0  0  0  0  0
    8.9238   -3.7310   27.4098 N   0  0  0  0  0  0  0  0  0  0  0  0
   -0.2577  -10.3709   15.2658 C   0  0  0  0  0  0  0  0  0  0  0  0
    9.7611   -5.6752   18.5294 C   0  0  0  0  0  0  0  0  0  0  0  0
    8.5288   -2.4966   25.8582 N   0  0  0  0  0  0  0  0  0  0  0  0
    3.4837  -10.4028   17.8860 C   0  0  0  0  0  0  0  0  0  0  0  0
   -1.0110  -11.5292   15.5364 C   0  0  0  0  0  0  0  0  0  0  0  0
    3.3017   -8.3373   15.5064 C   0  0  0  0  0  0  0  0  0  0  0  0
   -1.9311  -11.5083   13.4493 C   0  0  0  0  0  0  0  0  0  0  0  0
   10.0492   -2.8226   25.4933 N   0  0  0  0  0  0  0  0  0  0  0  0
    1.0701  -11.2899   18.4255 N   0  0  0  0  0  0  0  0  0  0  0  0
    4.7472   -9.3720   17.1227 I   0  0  0  0  0  0  0  0  0  0  0  0
   -1.2491  -12.1070   14.5383 C   0  0  0  0  0  0  0  0  0  0  0  0
    2.7580   -9.6932   17.2983 C   0  0  0  0  0  0  0  0  0  0  0  0
   10.2496   -3.5437   16.7559 C   0  0  0  0  0  0  0  0  0  0  0  0
    8.1219   -8.0960   17.3396 C   0  0  0  0  0  0  0  0  0  0  0  0
    5.4214   -9.6763   18.2778 N   0  0  0  0  0  0  0  0  0  0  0  0
    7.2540   -8.7237   17.7608 C   0  0  0  0  0  0  0  0  0  0  0  0
   10.6496   -4.5832   19.0983 C   0  0  0  0  0  0  0  0  0  0  0  0
   -0.1475   -9.4822   14.2326 C   0  0  0  0  0  0  0  0  0  0  0  0
    7.4100   -6.5186   15.7508 C   0  0  0  0  0  0  0  0  0  0  0  0
    8.0888   -6.7277   17.2117 C   0  0  0  0  0  0  0  0  0  0  0  0
    6.5401   -6.6019   15.8449 C   0  0  0  0  0  0  0  0  0  0  0  0
    3.0834   -7.8995   16.0045 O   0  0  0  0  0  0  0  0  0  0  0  0
    7.8495   -3.1946   26.8006 C   0  0  0  0  0  0  0  0  0  0  0  0
    9.4386   -4.3565   16.5241 C   0  0  0  0  0  0  0  0  0  0  0  0
    1.8955  -11.7060   19.3172 C   0  0  0  0  0  0  0  0  0  0  0  0
    1.6390  -10.1021   17.6124 C   0  0  0  0  0  0  0  0  0  0  0  0
   -0.9776  -10.2786   13.2479 C   0  0  0  0  0  0  0  0  0  0  0  0
   11.0606   -3.4771   18.0918 He  0  0  0  0  0  0  0  0  0  0  0  0
  1 10  4  0
  1 13  4  0
  1 17  4  0
  1 31  4  0
  2  8  4  0
  2 22  4  0
  2 23  1  0
  2 26  1  0
  2 30  4  0
  3  7  1  0
  3 18  4  0
  3 21  2  0
  3 32  1  0
  4  6  4  0
  4 32  4  0
  4 33  1  0
  5 22  4  0
  5 24  4  0
  5 29  1  0
  5 30  4  0
  6 10  3  0
  6 29  4  0
  6 33  2  0
  7 11  4  0
  7 24  4  0
  8 12  4  0
  8 15  2  0
  8 20  4  0
  8 23  4  0
  8 26  4  0
  8 29  4  0
  8 33  2  0
  9 10  1  0
  9 14  1  0
  9 26  1  0
  9 29  4  0
  9 30  1  0
 10 14  3  0
 10 15  1  0
 10 21  4  0
 10 27  1  0
 11 17  4  0
 11 20  3  0
 12 16  4  0
 12 18  3  0
 12 28  2  0
 12 30  4  0
 12 32  4  0
 13 17  4  0
 13 33  4  0
 15 30  2  0
 15 31  4  0
 15 32  4  0
 16 18  3  0
 16 19  3  0
 16 25  2  0
 16 28  4  0
 16 33  4  0
 17 21  3  0
 17 23  3  0
 18 32  4  0
 19 24  4  0
 19 30  4  0
 20 21  2  0
 20 22  4  0
 20 25  1  0
 20 26  4  0
 20 27  1  0
 20 28  2  0
 21 30  2  0
 21 31  1  0
 21 32  3  0
 24 32  3  0
 24 33  4  0
 25 26  4  0
 25 27  4  0
 32 33  4  0
M  END
$$$$

 Created by Python create_sdf_string function

 34 38  0  0  0  0  0  0  0  0999 V2000
    3.1838  -11.2719   19.1765 N   0  0  0  0  0  0  0  0  0  0  0  0
    9.1896   -5.5935   17.2894 C   0  0  0  0  0  0  0  0  0  0  0  0
    0.6304   -9.6602   16.4541 N   0  0  0  0  0  0  0  0  0  0  0  0
   10.2193   -3.6910   26.6172 N   0  0  0  0  0  0  0  0  0  0  0  0
    6.0684   -8.2239   16.8016 C   0  0  0  0  0  0  0  0  0  0  0  0
    9.0306   -3.8641   27.3854 N   0  0  0  0  0  0  0  0  0  0  0  0
   -0.1144  -10.2902   15.4193 C   0  0  0  0  0  0  0  0  0  0  0  0
    9.8549   -5.5940   18.5677 C   0  0  0  0  0  0  0  0  0  0  0  0
    8.5175   -2.4474   25.6749 N   0  0  0  0  0  0  0  0  0  0  0  0
    3.6167  -10.3852   18.2265 C   0  0  0  0  0  0  0  0  0  0  0  0
   -0.7764  -11.5330   15.5774 C   0  0  0  0  0  0  0  0  0  0  0  0
    3.5037   -8.8048   16.5429 C   0  0  0  0  0  0  0  0  0  0  0  0
   -1.6369  -11.4378   13.4060 C   0  0  0  0  0  0  0  0  0  0  0  0
    9.9143   -2.8282   25.5664 N   0  0  0  0  0  0  0  0  0  0  0  0
    1.0225  -11.1451   18.3042 N   0  0  0  0  0  0  0  0  0  0  0  0
    4.7925   -8.9287   17.0530 N   0  0  0  0  0  0  0  0  0  0  0  0
   -1.5130  -12.0613   14.6359 C   0  0  0  0  0  0  0  0  0  0  0  0
    2.8015   -9.7891   17.2975 C   0  0  0  0  0  0  0  0  0  0  0  0
   10.3842   -3.4869   16.9097 C   0  0  0  0  0  0  0  0  0  0  0  0
    8.1673   -7.8080   17.6247 C   0  0  0  0  0  0  0  0  0  0  0  0
    4.8677   -9.9075   18.0203 N   0  0  0  0  0  0  0  0  0  0  0  0
    7.1424   -8.5866   17.5143 C   0  0  0  0  0  0  0  0  0  0  0  0
   10.7021   -4.5545   18.9647 C   0  0  0  0  0  0  0  0  0  0  0  0
   -0.2780   -9.6567   14.1934 C   0  0  0  0  0  0  0  0  0  0  0  0
    7.2404   -6.4251   15.9514 C   0  0  0  0  0  0  0  0  0  0  0  0
    8.2557   -6.5641   16.9379 C   0  0  0  0  0  0  0  0  0  0  0  0
    6.1418   -7.1877   15.9318 C   0  0  0  0  0  0  0  0  0  0  0  0
   10.9387   -3.5254   18.1325 C   0  0  0  0  0  0  0  0  0  0  0  0
    3.1289   -8.0338   15.7658 O   0  0  0  0  0  0  0  0  0  0  0  0
    7.9592   -3.1382   26.7838 C   0  0  0  0  0  0  0  0  0  0  0  0
    9.4734   -4.4721   16.4900 C   0  0  0  0  0  0  0  0  0  0  0  0
    1.8968  -11.6197   19.2185 C   0  0  0  0  0  0  0  0  0  0  0  0
    1.4884  -10.2353   17.3316 C   0  0  0  0  0  0  0  0  0  0  0  0
   -1.0387  -10.2135   13.2233 C   0  0  0  0  0  0  0  0  0  0  0  0
  1 10  4  0
  1 32  4  0
  2  8  4  0
  2 26  1  0
  2 31  4  0
  3  7  1  0
  3 33  1  0
  4  6  4  0
  4 14  4  0
  5 16  1  0
  5 22  4  0
  5 27  4  0
  6 30  4  0
  7 11  4  0
  7 24  4  0
  8 23  4  0
  9 14  4  0
  9 30  4  0
 10 18  4  0
 10 21  4  0
 11 17  4  0
 12 16  4  0
 12 18  4  0
 12 29  2  0
 13 17  4  0
 13 34  4  0
 15 32  4  0
 15 33  4  0
 16 21  4  0
 18 33  4  0
 19 28  4  0
 19 31  4  0
 20 22  4  0
 20 26  4  0
 23 28  4  0
 24 34  4  0
 25 26  4  0
 25 27  4  0
M  END
$$$$

 Created by Python create_sdf_string function

 34 73  0  0  0  0  0  0  0  0999 V2000
    3.3091  -11.3563   19.2447 N   0  0  0  0  0  0  0  0  0  0  0  0
    9.2465   -5.6682   17.0999 C   0  0  0  0  0  0  0  0  0  0  0  0
    0.7368   -9.6311   16.3829 N   0  0  0  0  0  0  0  0  0  0  0  0
   10.3438   -3.3380   26.8678 N   0  0  0  0  0  0  0  0  0  0  0  0
    5.6233   -8.2887   17.2792 C   0  0  0  0  0  0  0  0  0  0  0  0
    8.8897   -3.6264   27.2678 N   0  0  0  0  0  0  0  0  0  0  0  0
   -0.1972  -10.2864   15.4735 C   0  0  0  0  0  0  0  0  0  0  0  0
    9.7894   -5.5057   18.5059 C   0  0  0  0  0  0  0  0  0  0  0  0
    8.6227   -2.5033   25.6774 N   0  0  0  0  0  0  0  0  0  0  0  0
    3.1069  -10.6745   18.4444 C   0  0  0  0  0  0  0  0  0  0  0  0
   -0.7753  -11.4790   15.4500 C   0  0  0  0  0  0  0  0  0  0  0  0
    3.6604   -8.6131   16.5189 C   0  0  0  0  0  0  0  0  0  0  0  0
   -1.5672  -11.3911   13.5203 C   0  0  0  0  0  0  0  0  0  0  0  0
    9.7043   -2.4652   25.4952 N   0  0  0  0  0  0  0  0  0  0  0  0
    1.0056  -11.2329   18.4029 N   0  0  0  0  0  0  0  0  0  0  0  0
   -1.5900  -12.1966   14.5116 C   0  0  0  0  0  0  0  0  0  0  0  0
    2.6824   -9.6488   17.3605 C   0  0  0  0  0  0  0  0  0  0  0  0
   10.2202   -3.4357   16.9013 C   0  0  0  0  0  0  0  0  0  0  0  0
    4.9369   -9.5652   17.5443 N   0  0  0  0  0  0  0  0  0  0  0  0
    6.7367   -8.3161   17.5439 C   0  0  0  0  0  0  0  0  0  0  0  0
   10.7126   -4.7797   19.2668 C   0  0  0  0  0  0  0  0  0  0  0  0
   -0.2930   -9.6941   14.0585 C   0  0  0  0  0  0  0  0  0  0  0  0
    7.1051   -6.4027   15.9767 C   0  0  0  0  0  0  0  0  0  0  0  0
    8.3133   -6.6897   16.6351 C   0  0  0  0  0  0  0  0  0  0  0  0
    5.7766   -7.0183   16.2487 C   0  0  0  0  0  0  0  0  0  0  0  0
   11.0821   -3.5727   18.2139 C   0  0  0  0  0  0  0  0  0  0  0  0
    3.1319   -8.0322   15.6837 O   0  0  0  0  0  0  0  0  0  0  0  0
    7.7392   -2.9535   26.8738 C   0  0  0  0  0  0  0  0  0  0  0  0
    9.3626   -4.5381   16.2441 C   0  0  0  0  0  0  0  0  0  0  0  0
    1.6991  -11.4785   19.1339 C   0  0  0  0  0  0  0  0  0  0  0  0
    1.6876  -10.2266   17.1605 C   0  0  0  0  0  0  0  0  0  0  0  0
   -1.1036  -10.2219   13.2013 C   0  0  0  0  0  0  0  0  0  0  0  0
    4.6870   -9.2739   17.6909 He  0  0  0  0  0  0  0  0  0  0  0  0
    7.7346   -7.9271   17.2927 He  0  0  0  0  0  0  0  0  0  0  0  0
  1 10  2  0
  1 17  1  0
  1 28  4  0
  2  7  3  0
  2  8  4  0
  2 14  3  0
  2 16  2  0
  2 24  1  0
  2 29  4  0
  3  7  1  0
  3 18  4  0
  3 20  3  0
  3 25  1  0
  3 26  1  0
  3 32  4  0
  4 14  4  0
  4 20  3  0
  5  7  4  0
  5 18  2  0
  5 25  4  0
  5 28  2  0
  6 10  4  0
  6 17  1  0
  6 28  4  0
  7 10  2  0
  7 11  4  0
  7 12  4  0
  7 22  4  0
  7 25  1  0
  7 30  4  0
  8 12  4  0
  8 16  1  0
  8 21  4  0
  8 27  3  0
  9 13  1  0
  9 14  4  0
  9 25  1  0
  9 28  4  0
 10 17  4  0
 10 19  2  0
 10 25  2  0
 10 30  3  0
 11 13  1  0
 11 16  4  0
 11 19  1  0
 11 31  1  0
 11 32  3  0
 12 17  4  0
 12 22  3  0
 12 27  1  0
 12 29  1  0
 13 16  4  0
 13 21  3  0
 14 24  4  0
 14 29  1  0
 15 30  4  0
 15 31  4  0
 16 19  3  0
 17 31  4  0
 18 24  4  0
 18 26  4  0
 18 28  3  0
 18 29  4  0
 19 24  1  0
 19 27  3  0
 20 32  2  0
 21 26  4  0
 22 32  4  0
 23 24  4  0
 23 25  2  0
 25 27  2  0
 25 28  2  0
 25 31  4  0
M  END
$$$$

 Created by Python create_sdf_string function

 34 38  0  0  0  0  0  0  0  0999 V2000
    3.0783  -11.3878   19.1765 N   0  0  0  0  0  0  0  0  0  0  0  0
    9.1337   -5.6199   17.2530 C   0  0  0  0  0  0  0  0  0  0  0  0
    0.5638   -9.6609   16.4186 N   0  0  0  0  0  0  0  0  0  0  0  0
   10.1895   -3.3391   26.7285 N   0  0  0  0  0  0  0  0  0  0  0  0
    5.8555   -8.1847   17.0047 C   0  0  0  0  0  0  0  0  0  0  0  0
    8.9676   -3.6387   27.4236 N   0  0  0  0  0  0  0  0  0  0  0  0
   -0.1439  -10.2954   15.3835 C   0  0  0  0  0  0  0  0  0  0  0  0
    9.8505   -5.6760   18.5063 C   0  0  0  0  0  0  0  0  0  0  0  0
    8.4402   -2.3385   25.6128 N   0  0  0  0  0  0  0  0  0  0  0  0
    3.5262  -10.4789   18.2876 C   0  0  0  0  0  0  0  0  0  0  0  0
   -0.7721  -11.5339   15.5439 C   0  0  0  0  0  0  0  0  0  0  0  0
    3.4100   -8.8432   16.6999 C   0  0  0  0  0  0  0  0  0  0  0  0
   -1.6622  -11.4465   13.4126 C   0  0  0  0  0  0  0  0  0  0  0  0
    9.8480   -2.5715   25.6089 N   0  0  0  0  0  0  0  0  0  0  0  0
    0.9201  -11.1757   18.2745 N   0  0  0  0  0  0  0  0  0  0  0  0
    4.6984   -8.9681   17.2529 N   0  0  0  0  0  0  0  0  0  0  0  0
   -1.5275  -12.0955   14.5960 C   0  0  0  0  0  0  0  0  0  0  0  0
    2.7116   -9.8611   17.3776 C   0  0  0  0  0  0  0  0  0  0  0  0
   10.3911   -3.5527   16.8964 C   0  0  0  0  0  0  0  0  0  0  0  0
    8.0847   -7.7898   17.5563 C   0  0  0  0  0  0  0  0  0  0  0  0
    4.7418   -9.9850   18.1708 N   0  0  0  0  0  0  0  0  0  0  0  0
    7.0179   -8.5098   17.6585 C   0  0  0  0  0  0  0  0  0  0  0  0
   10.6480   -4.6508   18.9666 C   0  0  0  0  0  0  0  0  0  0  0  0
   -0.2992   -9.6792   14.1669 C   0  0  0  0  0  0  0  0  0  0  0  0
    7.0380   -6.3510   16.1237 C   0  0  0  0  0  0  0  0  0  0  0  0
    8.1539   -6.5227   16.9324 C   0  0  0  0  0  0  0  0  0  0  0  0
    5.9239   -7.0959   16.1871 C   0  0  0  0  0  0  0  0  0  0  0  0
   10.8886   -3.5861   18.1477 C   0  0  0  0  0  0  0  0  0  0  0  0
    2.9857   -8.0587   15.8135 O   0  0  0  0  0  0  0  0  0  0  0  0
    7.8927   -3.0220   26.7159 C   0  0  0  0  0  0  0  0  0  0  0  0
    9.4655   -4.5163   16.4451 C   0  0  0  0  0  0  0  0  0  0  0  0
    1.7816  -11.6728   19.2060 C   0  0  0  0  0  0  0  0  0  0  0  0
    1.3969  -10.2480   17.3521 C   0  0  0  0  0  0  0  0  0  0  0  0
   -1.0713  -10.2382   13.1680 C   0  0  0  0  0  0  0  0  0  0  0  0
  1 10  4  0
  1 32  4  0
  2  8  4  0
  2 26  1  0
  2 31  4  0
  3  7  1  0
  3 33  1  0
  4  6  4  0
  4 14  4  0
  5 16  1  0
  5 22  4  0
  5 27  4  0
  6 30  4  0
  7 11  4  0
  7 24  4  0
  8 23  4  0
  9 14  4  0
  9 30  4  0
 10 18  4  0
 10 21  4  0
 11 17  4  0
 12 16  4  0
 12 18  4  0
 12 29  1  0
 13 17  4  0
 13 34  4  0
 15 32  4  0
 15 33  4  0
 16 21  4  0
 18 33  4  0
 19 28  4  0
 19 31  4  0
 20 22  4  0
 20 26  4  0
 23 28  4  0
 24 34  4  0
 25 26  4  0
 25 27  4  0
M  END
$$$$

 Created by Python create_sdf_string function

 34 62  0  0  0  0  0  0  0  0999 V2000
    3.0731  -11.1069   19.0068 N   0  0  0  0  0  0  0  0  0  0  0  0
    8.9950   -5.6674   17.2645 C   0  0  0  0  0  0  0  0  0  0  0  0
    0.7018   -9.8343   16.2872 N   0  0  0  0  0  0  0  0  0  0  0  0
    5.2564   -7.8866   17.0847 C   0  0  0  0  0  0  0  0  0  0  0  0
    8.8766   -3.5478   27.6198 N   0  0  0  0  0  0  0  0  0  0  0  0
   -0.3207  -10.0775   15.3578 C   0  0  0  0  0  0  0  0  0  0  0  0
    9.8674   -5.8509   18.5065 C   0  0  0  0  0  0  0  0  0  0  0  0
    8.3569   -2.3038   25.6078 N   0  0  0  0  0  0  0  0  0  0  0  0
    3.6393  -10.6255   18.3723 C   0  0  0  0  0  0  0  0  0  0  0  0
   -0.7228  -11.5785   15.8097 O   0  0  0  0  0  0  0  0  0  0  0  0
   -1.6491  -11.3177   13.6031 C   0  0  0  0  0  0  0  0  0  0  0  0
    9.5999   -2.6836   25.5872 N   0  0  0  0  0  0  0  0  0  0  0  0
    0.9749  -11.2548   18.0390 N   0  0  0  0  0  0  0  0  0  0  0  0
    4.4829   -8.6867   17.3955 F   0  0  0  0  0  0  0  0  0  0  0  0
   -1.3025  -12.3068   14.2791 C   0  0  0  0  0  0  0  0  0  0  0  0
    2.8027   -9.7953   17.4759 C   0  0  0  0  0  0  0  0  0  0  0  0
   10.4251   -3.4420   17.1182 C   0  0  0  0  0  0  0  0  0  0  0  0
    7.9808   -7.7531   17.3458 C   0  0  0  0  0  0  0  0  0  0  0  0
    5.2642   -9.7216   17.8790 N   0  0  0  0  0  0  0  0  0  0  0  0
    6.9382   -8.5840   17.6754 C   0  0  0  0  0  0  0  0  0  0  0  0
   10.5648   -4.5179   19.2974 C   0  0  0  0  0  0  0  0  0  0  0  0
   -0.1636   -9.5654   14.2094 C   0  0  0  0  0  0  0  0  0  0  0  0
    7.0168   -6.3010   16.1009 C   0  0  0  0  0  0  0  0  0  0  0  0
    8.4082   -6.6523   16.9157 C   0  0  0  0  0  0  0  0  0  0  0  0
   11.0302   -3.6001   18.1237 C   0  0  0  0  0  0  0  0  0  0  0  0
    2.6789   -8.3195   15.8378 O   0  0  0  0  0  0  0  0  0  0  0  0
    7.7211   -3.0615   26.6804 C   0  0  0  0  0  0  0  0  0  0  0  0
    9.6187   -4.2682   16.1885 C   0  0  0  0  0  0  0  0  0  0  0  0
    1.5436  -11.5967   19.1220 C   0  0  0  0  0  0  0  0  0  0  0  0
    1.4188  -10.0760   17.3085 C   0  0  0  0  0  0  0  0  0  0  0  0
   10.3524   -3.2096   26.4914 He  0  0  0  0  0  0  0  0  0  0  0  0
    3.4702   -9.2048   16.9606 He  0  0  0  0  0  0  0  0  0  0  0  0
    5.5068   -7.2073   16.4318 He  0  0  0  0  0  0  0  0  0  0  0  0
   -0.9334  -10.2558   13.0794 He  0  0  0  0  0  0  0  0  0  0  0  0
  1  8  2  0
  1  9  4  0
  1 21  2  0
  1 29  4  0
  2  7  4  0
  2 24  1  0
  2 28  4  0
  3  6  1  0
  3 14  1  0
  3 26  3  0
  3 30  1  0
  4  7  1  0
  4 14  1  0
  4 20  4  0
  4 26  2  0
  4 30  4  0
  5  8  3  0
  5 12  3  0
  5 23  3  0
  5 27  4  0
  6 10  4  0
  6 21  2  0
  6 22  4  0
  7 21  4  0
  7 25  2  0
  8 12  4  0
  8 26  4  0
  8 27  4  0
  9 10  3  0
  9 16  4  0
  9 19  4  0
  9 22  3  0
 10 15  4  0
 10 24  4  0
 10 30  2  0
 11 14  3  0
 11 15  4  0
 11 26  4  0
 11 30  4  0
 12 13  2  0
 13 29  4  0
 13 30  4  0
 14 19  4  0
 14 25  2  0
 14 26  1  0
 15 26  4  0
 16 19  4  0
 16 30  4  0
 17 25  4  0
 17 28  4  0
 18 19  4  0
 18 20  4  0
 18 21  2  0
 18 28  2  0
 18 29  1  0
 19 22  3  0
 20 29  1  0
 21 24  3  0
 21 25  4  0
 22 23  4  0
 23 24  4  0
 23 29  4  0
M  END
$$$$

 Created by Python create_sdf_string function

 34 38  0  0  0  0  0  0  0  0999 V2000
    3.0016  -11.4274   19.1821 N   0  0  0  0  0  0  0  0  0  0  0  0
    9.1385   -5.6005   17.3301 C   0  0  0  0  0  0  0  0  0  0  0  0
    0.5937   -9.6652   16.4255 N   0  0  0  0  0  0  0  0  0  0  0  0
   10.1246   -3.2730   26.6264 N   0  0  0  0  0  0  0  0  0  0  0  0
    5.8351   -8.1398   17.0587 C   0  0  0  0  0  0  0  0  0  0  0  0
    8.9496   -3.5489   27.4579 N   0  0  0  0  0  0  0  0  0  0  0  0
   -0.1112  -10.2986   15.3907 C   0  0  0  0  0  0  0  0  0  0  0  0
    9.8133   -5.6574   18.5899 C   0  0  0  0  0  0  0  0  0  0  0  0
    8.2896   -2.3641   25.5756 N   0  0  0  0  0  0  0  0  0  0  0  0
    3.5271  -10.4764   18.3326 C   0  0  0  0  0  0  0  0  0  0  0  0
   -0.7097  -11.5477   15.5194 C   0  0  0  0  0  0  0  0  0  0  0  0
    3.3635   -8.8512   16.7215 C   0  0  0  0  0  0  0  0  0  0  0  0
   -1.5548  -11.4590   13.3722 C   0  0  0  0  0  0  0  0  0  0  0  0
    9.6969   -2.5821   25.4849 N   0  0  0  0  0  0  0  0  0  0  0  0
    0.9173  -11.1979   18.1983 N   0  0  0  0  0  0  0  0  0  0  0  0
    4.6894   -8.9382   17.2913 N   0  0  0  0  0  0  0  0  0  0  0  0
   -1.4326  -12.1056   14.5400 C   0  0  0  0  0  0  0  0  0  0  0  0
    2.6979   -9.8714   17.4192 C   0  0  0  0  0  0  0  0  0  0  0  0
   10.4261   -3.5296   16.9758 C   0  0  0  0  0  0  0  0  0  0  0  0
    8.0753   -7.7750   17.5705 C   0  0  0  0  0  0  0  0  0  0  0  0
    4.7511   -9.9536   18.2387 N   0  0  0  0  0  0  0  0  0  0  0  0
    6.9709   -8.4919   17.6514 C   0  0  0  0  0  0  0  0  0  0  0  0
   10.6482   -4.6385   19.0509 C   0  0  0  0  0  0  0  0  0  0  0  0
   -0.2907   -9.6561   14.2042 C   0  0  0  0  0  0  0  0  0  0  0  0
    6.9765   -6.2501   16.2216 C   0  0  0  0  0  0  0  0  0  0  0  0
    8.1211   -6.4950   16.9818 C   0  0  0  0  0  0  0  0  0  0  0  0
    5.8606   -6.9866   16.2925 C   0  0  0  0  0  0  0  0  0  0  0  0
   10.9030   -3.5622   18.2376 C   0  0  0  0  0  0  0  0  0  0  0  0
    2.9480   -8.1326   15.8512 O   0  0  0  0  0  0  0  0  0  0  0  0
    7.8070   -3.0097   26.7278 C   0  0  0  0  0  0  0  0  0  0  0  0
    9.5050   -4.5130   16.5303 C   0  0  0  0  0  0  0  0  0  0  0  0
    1.7346  -11.7274   19.1397 C   0  0  0  0  0  0  0  0  0  0  0  0
    1.4167  -10.2627   17.3139 C   0  0  0  0  0  0  0  0  0  0  0  0
   -1.0353  -10.2129   13.1980 C   0  0  0  0  0  0  0  0  0  0  0  0
  1 10  4  0
  1 32  4  0
  2  8  4  0
  2 26  1  0
  2 31  4  0
  3  7  1  0
  3 33  1  0
  4  6  4  0
  4 14  4  0
  5 16  1  0
  5 22  4  0
  5 27  4  0
  6 30  4  0
  7 11  4  0
  7 24  4  0
  8 23  4  0
  9 14  4  0
  9 30  4  0
 10 18  4  0
 10 21  4  0
 11 17  4  0
 12 16  4  0
 12 18  4  0
 12 29  1  0
 13 17  4  0
 13 34  4  0
 15 32  4  0
 15 33  4  0
 16 21  4  0
 18 33  4  0
 19 28  4  0
 19 31  4  0
 20 22  4  0
 20 26  4  0
 23 28  4  0
 24 34  4  0
 25 26  4  0
 25 27  4  0
M  END
$$$$

 Created by Python create_sdf_string function

 34 56  0  0  0  0  0  0  0  0999 V2000
    2.9141  -11.6045   19.1957 N   0  0  0  0  0  0  0  0  0  0  0  0
    9.0864   -5.5541   17.5745 C   0  0  0  0  0  0  0  0  0  0  0  0
    9.8188   -3.3045   26.7458 N   0  0  0  0  0  0  0  0  0  0  0  0
    6.2742   -8.3958   17.0554 C   0  0  0  0  0  0  0  0  0  0  0  0
    8.6226   -3.6215   27.2536 N   0  0  0  0  0  0  0  0  0  0  0  0
   -0.3033  -10.1097   15.2425 C   0  0  0  0  0  0  0  0  0  0  0  0
    8.1621   -2.4486   25.7799 N   0  0  0  0  0  0  0  0  0  0  0  0
   -0.8182  -11.7869   15.5131 C   0  0  0  0  0  0  0  0  0  0  0  0
    3.3277   -8.5348   16.4353 C   0  0  0  0  0  0  0  0  0  0  0  0
   -1.5073  -11.6506   13.3862 C   0  0  0  0  0  0  0  0  0  0  0  0
    9.6684   -2.5862   25.3351 N   0  0  0  0  0  0  0  0  0  0  0  0
    0.5915  -11.2473   18.0696 N   0  0  0  0  0  0  0  0  0  0  0  0
    5.1068   -9.0562   17.1836 N   0  0  0  0  0  0  0  0  0  0  0  0
   -1.2135  -12.3596   14.5501 C   0  0  0  0  0  0  0  0  0  0  0  0
    2.6454   -9.8860   17.4120 C   0  0  0  0  0  0  0  0  0  0  0  0
   10.0215   -3.3428   16.8394 C   0  0  0  0  0  0  0  0  0  0  0  0
    7.6507   -7.6072   17.2531 I   0  0  0  0  0  0  0  0  0  0  0  0
    4.4979   -9.8220   17.9083 N   0  0  0  0  0  0  0  0  0  0  0  0
    7.0985   -8.4559   17.7366 C   0  0  0  0  0  0  0  0  0  0  0  0
   10.3204   -4.6811   19.0656 C   0  0  0  0  0  0  0  0  0  0  0  0
   -0.0897   -9.8394   14.3519 C   0  0  0  0  0  0  0  0  0  0  0  0
    6.9562   -6.3650   16.2216 C   0  0  0  0  0  0  0  0  0  0  0  0
    7.9479   -6.3110   16.7622 C   0  0  0  0  0  0  0  0  0  0  0  0
    5.5532   -7.1197   16.5248 C   0  0  0  0  0  0  0  0  0  0  0  0
   11.0446   -3.4108   18.3114 C   0  0  0  0  0  0  0  0  0  0  0  0
    3.0572   -8.3187   15.9477 O   0  0  0  0  0  0  0  0  0  0  0  0
    7.6832   -3.0169   26.5726 C   0  0  0  0  0  0  0  0  0  0  0  0
    9.4797   -4.4423   16.3422 C   0  0  0  0  0  0  0  0  0  0  0  0
    1.7495  -11.6257   19.1397 C   0  0  0  0  0  0  0  0  0  0  0  0
    1.3469  -10.2904   17.3110 C   0  0  0  0  0  0  0  0  0  0  0  0
   -1.1616  -10.1437   13.0719 C   0  0  0  0  0  0  0  0  0  0  0  0
    0.7400   -9.6247   16.2764 He  0  0  0  0  0  0  0  0  0  0  0  0
    9.7888   -5.6735   18.4399 He  0  0  0  0  0  0  0  0  0  0  0  0
    3.3200  -10.4513   18.2203 He  0  0  0  0  0  0  0  0  0  0  0  0
  1 18  4  0
  1 24  2  0
  1 29  4  0
  2 18  1  0
  2 23  1  0
  2 28  4  0
  3 11  4  0
  3 26  1  0
  3 28  2  0
  3 30  3  0
  4 13  1  0
  4 19  4  0
  4 24  4  0
  5 23  1  0
  5 27  4  0
  6  8  4  0
  6 18  2  0
  6 21  4  0
  6 25  1  0
  7 11  4  0
  7 16  2  0
  7 27  4  0
  8 12  1  0
  8 14  4  0
  8 20  4  0
  8 22  1  0
  9 13  4  0
  9 15  4  0
  9 17  3  0
  9 24  4  0
  9 26  1  0
 10 12  2  0
 10 13  1  0
 10 14  4  0
 10 31  4  0
 12 21  4  0
 12 29  4  0
 12 30  4  0
 13 18  4  0
 13 21  4  0
 13 27  3  0
 14 26  2  0
 15 30  4  0
 16 25  4  0
 16 28  4  0
 17 19  4  0
 17 25  2  0
 19 26  3  0
 20 25  4  0
 20 29  2  0
 21 31  4  0
 22 23  4  0
 22 24  4  0
 24 26  3  0
 24 28  2  0
 26 29  3  0
M  END
$$$$

 Created by Python create_sdf_string function

 34 38  0  0  0  0  0  0  0  0999 V2000
    2.9360  -11.4234   19.1650 N   0  0  0  0  0  0  0  0  0  0  0  0
    9.0260   -5.5318   17.3207 C   0  0  0  0  0  0  0  0  0  0  0  0
    0.5061   -9.6789   16.4149 N   0  0  0  0  0  0  0  0  0  0  0  0
    9.9098   -3.3644   26.6453 N   0  0  0  0  0  0  0  0  0  0  0  0
    5.8335   -8.2308   17.0910 C   0  0  0  0  0  0  0  0  0  0  0  0
    8.6827   -3.6587   27.3331 N   0  0  0  0  0  0  0  0  0  0  0  0
   -0.1673  -10.3588   15.3547 C   0  0  0  0  0  0  0  0  0  0  0  0
    9.7251   -5.5694   18.5616 C   0  0  0  0  0  0  0  0  0  0  0  0
    8.1913   -2.3251   25.5388 N   0  0  0  0  0  0  0  0  0  0  0  0
    3.4222  -10.5237   18.2799 C   0  0  0  0  0  0  0  0  0  0  0  0
   -0.6963  -11.6523   15.4845 C   0  0  0  0  0  0  0  0  0  0  0  0
    3.3820   -8.9416   16.7010 C   0  0  0  0  0  0  0  0  0  0  0  0
   -1.5170  -11.6115   13.3156 C   0  0  0  0  0  0  0  0  0  0  0  0
    9.5885   -2.5839   25.5083 N   0  0  0  0  0  0  0  0  0  0  0  0
    0.8082  -11.1770   18.2307 N   0  0  0  0  0  0  0  0  0  0  0  0
    4.6765   -9.0277   17.3077 N   0  0  0  0  0  0  0  0  0  0  0  0
   -1.3801  -12.2565   14.5236 C   0  0  0  0  0  0  0  0  0  0  0  0
    2.6378   -9.9014   17.3527 C   0  0  0  0  0  0  0  0  0  0  0  0
   10.3103   -3.4578   16.9153 C   0  0  0  0  0  0  0  0  0  0  0  0
    8.0444   -7.7450   17.5988 C   0  0  0  0  0  0  0  0  0  0  0  0
    4.6935  -10.0552   18.1936 N   0  0  0  0  0  0  0  0  0  0  0  0
    7.0068   -8.5678   17.6456 C   0  0  0  0  0  0  0  0  0  0  0  0
   10.5724   -4.5558   18.9867 C   0  0  0  0  0  0  0  0  0  0  0  0
   -0.3471   -9.7326   14.1681 C   0  0  0  0  0  0  0  0  0  0  0  0
    6.8802   -6.2698   16.2776 C   0  0  0  0  0  0  0  0  0  0  0  0
    8.0199   -6.4748   17.0243 C   0  0  0  0  0  0  0  0  0  0  0  0
    5.8218   -7.1051   16.2992 C   0  0  0  0  0  0  0  0  0  0  0  0
   10.8233   -3.4862   18.1704 C   0  0  0  0  0  0  0  0  0  0  0  0
    3.0457   -8.1795   15.8369 O   0  0  0  0  0  0  0  0  0  0  0  0
    7.6394   -3.0319   26.6102 C   0  0  0  0  0  0  0  0  0  0  0  0
    9.3592   -4.4263   16.5049 C   0  0  0  0  0  0  0  0  0  0  0  0
    1.6683  -11.7509   19.1427 C   0  0  0  0  0  0  0  0  0  0  0  0
    1.3219  -10.2525   17.3177 C   0  0  0  0  0  0  0  0  0  0  0  0
   -1.0116  -10.3454   13.1378 C   0  0  0  0  0  0  0  0  0  0  0  0
  1 10  4  0
  1 32  4  0
  2  8  4  0
  2 26  1  0
  2 31  4  0
  3  7  1  0
  3 33  2  0
  4  6  4  0
  4 14  4  0
  5 16  1  0
  5 22  4  0
  5 27  4  0
  6 30  4  0
  7 11  4  0
  7 24  4  0
  8 23  4  0
  9 14  4  0
  9 30  4  0
 10 18  4  0
 10 21  4  0
 11 17  4  0
 12 16  4  0
 12 18  4  0
 12 29  1  0
 13 17  4  0
 13 34  4  0
 15 32  4  0
 15 33  4  0
 16 21  4  0
 18 33  4  0
 19 28  4  0
 19 31  4  0
 20 22  4  0
 20 26  4  0
 23 28  4  0
 24 34  4  0
 25 26  4  0
 25 27  4  0
M  END
$$$$

 Created by Python create_sdf_string function

 34 53  0  0  0  0  0  0  0  0999 V2000
    2.9856  -11.5927   19.2904 N   0  0  0  0  0  0  0  0  0  0  0  0
    9.2558   -5.4342   17.3154 C   0  0  0  0  0  0  0  0  0  0  0  0
    0.1875   -9.6042   16.4876 N   0  0  0  0  0  0  0  0  0  0  0  0
    9.9144   -3.3929   26.5414 N   0  0  0  0  0  0  0  0  0  0  0  0
    6.2057   -8.3569   17.2923 C   0  0  0  0  0  0  0  0  0  0  0  0
    8.7071   -3.6902   27.3252 N   0  0  0  0  0  0  0  0  0  0  0  0
   -0.0281  -10.3484   15.2087 C   0  0  0  0  0  0  0  0  0  0  0  0
    9.8749   -5.4981   18.5511 C   0  0  0  0  0  0  0  0  0  0  0  0
    8.2005   -2.2794   25.4794 C   0  0  0  0  0  0  0  0  0  0  0  0
    3.3693  -10.6458   17.9219 C   0  0  0  0  0  0  0  0  0  0  0  0
   -0.3772  -11.4967   15.4196 C   0  0  0  0  0  0  0  0  0  0  0  0
    3.5674   -9.4162   16.4262 B   0  0  0  0  0  0  0  0  0  0  0  0
   -1.3906  -11.5252   12.8976 C   0  0  0  0  0  0  0  0  0  0  0  0
    9.7750   -2.5626   25.8225 N   0  0  0  0  0  0  0  0  0  0  0  0
    4.6581   -8.6341   17.5653 N   0  0  0  0  0  0  0  0  0  0  0  0
    2.4518   -9.6542   17.3518 C   0  0  0  0  0  0  0  0  0  0  0  0
   10.6246   -3.6182   16.8490 C   0  0  0  0  0  0  0  0  0  0  0  0
    8.1347   -8.0303   17.6494 C   0  0  0  0  0  0  0  0  0  0  0  0
    4.6997   -9.7504   18.4086 N   0  0  0  0  0  0  0  0  0  0  0  0
    7.1685   -8.5752   17.7756 C   0  0  0  0  0  0  0  0  0  0  0  0
   10.5315   -4.5650   18.9614 C   0  0  0  0  0  0  0  0  0  0  0  0
   -0.4456   -9.7599   14.1965 C   0  0  0  0  0  0  0  0  0  0  0  0
    6.6582   -6.1518   16.2614 C   0  0  0  0  0  0  0  0  0  0  0  0
    8.1523   -6.5085   17.2956 C   0  0  0  0  0  0  0  0  0  0  0  0
    5.7738   -7.3127   16.6238 C   0  0  0  0  0  0  0  0  0  0  0  0
   11.1128   -3.4768   18.2490 Cl  0  0  0  0  0  0  0  0  0  0  0  0
    7.7175   -3.0998   27.0703 C   0  0  0  0  0  0  0  0  0  0  0  0
    9.4847   -4.4469   16.5796 C   0  0  0  0  0  0  0  0  0  0  0  0
    1.6260  -11.5576   19.3521 C   0  0  0  0  0  0  0  0  0  0  0  0
    1.3374  -10.4760   17.1912 C   0  0  0  0  0  0  0  0  0  0  0  0
   -0.8100  -10.2780   13.3189 C   0  0  0  0  0  0  0  0  0  0  0  0
    0.8362  -11.2154   18.3094 He  0  0  0  0  0  0  0  0  0  0  0  0
   -1.5133  -12.0320   14.6478 He  0  0  0  0  0  0  0  0  0  0  0  0
    2.9810   -8.1576   15.7403 He  0  0  0  0  0  0  0  0  0  0  0  0
  1 10  4  0
  1 24  1  0
  1 29  4  0
  2  8  4  0
  2 24  3  0
  2 27  2  0
  2 28  4  0
  3  7  1  0
  3 28  2  0
  3 30  2  0
  4  6  4  0
  4  9  1  0
  4 14  4  0
  5 15  3  0
  5 20  4  0
  5 24  2  0
  5 25  4  0
  5 26  2  0
  5 28  3  0
  5 30  3  0
  6 27  4  0
  7 11  4  0
  7 16  3  0
  7 22  4  0
  7 24  4  0
  8 11  1  0
  8 21  4  0
  9 14  4  0
  9 19  3  0
  9 27  4  0
 10 16  1  0
 10 19  4  0
 10 21  1  0
 12 14  1  0
 12 15  4  0
 12 17  2  0
 13 23  2  0
 13 31  4  0
 15 18  2  0
 15 19  4  0
 15 28  1  0
 16 30  4  0
 17 26  4  0
 17 28  2  0
 18 24  4  0
 19 29  1  0
 21 26  4  0
 21 28  3  0
 22 31  4  0
 23 24  4  0
 27 28  4  0
 29 30  1  0
 30 31  2  0
M  END
$$$$

 Created by Python create_sdf_string function

 34 38  0  0  0  0  0  0  0  0999 V2000
    2.9252  -11.4046   19.2453 N   0  0  0  0  0  0  0  0  0  0  0  0
    9.1536   -5.5773   17.4502 C   0  0  0  0  0  0  0  0  0  0  0  0
    0.4439   -9.6948   16.4749 N   0  0  0  0  0  0  0  0  0  0  0  0
    9.9749   -3.4826   26.6811 N   0  0  0  0  0  0  0  0  0  0  0  0
    5.8983   -8.2526   17.2140 C   0  0  0  0  0  0  0  0  0  0  0  0
    8.8187   -3.7744   27.4102 N   0  0  0  0  0  0  0  0  0  0  0  0
   -0.1871  -10.3289   15.3825 C   0  0  0  0  0  0  0  0  0  0  0  0
    9.8177   -5.5132   18.6949 C   0  0  0  0  0  0  0  0  0  0  0  0
    8.3053   -2.2647   25.7241 C   0  0  0  0  0  0  0  0  0  0  0  0
    3.4096  -10.4858   18.3782 C   0  0  0  0  0  0  0  0  0  0  0  0
   -0.7320  -11.6049   15.4248 C   0  0  0  0  0  0  0  0  0  0  0  0
    3.4143   -8.9906   16.7109 C   0  0  0  0  0  0  0  0  0  0  0  0
   -1.4321  -11.5077   13.2129 C   0  0  0  0  0  0  0  0  0  0  0  0
    9.7003   -2.5743   25.6405 N   0  0  0  0  0  0  0  0  0  0  0  0
    0.8103  -11.1423   18.3207 N   0  0  0  0  0  0  0  0  0  0  0  0
    4.6939   -9.0446   17.3721 N   0  0  0  0  0  0  0  0  0  0  0  0
   -1.2953  -12.1953   14.3797 C   0  0  0  0  0  0  0  0  0  0  0  0
    2.6192   -9.9043   17.4135 C   0  0  0  0  0  0  0  0  0  0  0  0
   10.5034   -3.5662   16.8802 C   0  0  0  0  0  0  0  0  0  0  0  0
    8.1462   -7.8134   17.7433 C   0  0  0  0  0  0  0  0  0  0  0  0
    4.6666  -10.0146   18.3230 N   0  0  0  0  0  0  0  0  0  0  0  0
    7.0576   -8.6070   17.7852 C   0  0  0  0  0  0  0  0  0  0  0  0
   10.7405   -4.4842   19.0040 C   0  0  0  0  0  0  0  0  0  0  0  0
   -0.2889   -9.6933   14.1750 C   0  0  0  0  0  0  0  0  0  0  0  0
    6.9737   -6.2720   16.4591 C   0  0  0  0  0  0  0  0  0  0  0  0
    8.1348   -6.5100   17.1811 C   0  0  0  0  0  0  0  0  0  0  0  0
    5.8832   -7.0820   16.4948 C   0  0  0  0  0  0  0  0  0  0  0  0
   11.0290   -3.5391   18.0982 C   0  0  0  0  0  0  0  0  0  0  0  0
    3.0745   -8.3383   15.6592 O   0  0  0  0  0  0  0  0  0  0  0  0
    7.7385   -3.0473   26.8245 C   0  0  0  0  0  0  0  0  0  0  0  0
    9.5456   -4.5340   16.5356 C   0  0  0  0  0  0  0  0  0  0  0  0
    1.6490  -11.7454   19.2293 C   0  0  0  0  0  0  0  0  0  0  0  0
    1.2852  -10.2616   17.3608 C   0  0  0  0  0  0  0  0  0  0  0  0
   -0.9265  -10.2422   13.1109 C   0  0  0  0  0  0  0  0  0  0  0  0
  1 10  4  0
  1 32  4  0
  2  8  4  0
  2 26  1  0
  2 31  4  0
  3  7  1  0
  3 33  2  0
  4  6  4  0
  4 14  4  0
  5 16  1  0
  5 22  4  0
  5 27  4  0
  6 30  4  0
  7 11  4  0
  7 24  4  0
  8 23  4  0
  9 14  4  0
  9 30  4  0
 10 18  4  0
 10 21  4  0
 11 17  4  0
 12 16  4  0
 12 18  4  0
 12 29  1  0
 13 17  4  0
 13 34  4  0
 15 32  4  0
 15 33  4  0
 16 21  4  0
 18 33  4  0
 19 28  4  0
 19 31  4  0
 20 22  4  0
 20 26  4  0
 23 28  4  0
 24 34  4  0
 25 26  4  0
 25 27  4  0
M  END
$$$$

 Created by Python create_sdf_string function

 34 53  0  0  0  0  0  0  0  0999 V2000
    0.3550   -9.8735   16.6381 N   0  0  0  0  0  0  0  0  0  0  0  0
   10.0103   -3.2901   26.5216 N   0  0  0  0  0  0  0  0  0  0  0  0
    6.2690   -8.3807   17.0137 C   0  0  0  0  0  0  0  0  0  0  0  0
   -0.0917  -10.3075   15.2948 C   0  0  0  0  0  0  0  0  0  0  0  0
    9.8821   -5.5270   18.6162 P   0  0  0  0  0  0  0  0  0  0  0  0
    8.3875   -2.6363   25.9065 C   0  0  0  0  0  0  0  0  0  0  0  0
   -0.7162  -11.4874   15.1655 C   0  0  0  0  0  0  0  0  0  0  0  0
    3.4118   -9.1279   16.9527 C   0  0  0  0  0  0  0  0  0  0  0  0
    9.6186   -2.7889   25.8440 N   0  0  0  0  0  0  0  0  0  0  0  0
    0.7402  -11.3741   18.2367 N   0  0  0  0  0  0  0  0  0  0  0  0
    4.7225   -9.2671   17.9795 N   0  0  0  0  0  0  0  0  0  0  0  0
   -1.3769  -12.5169   14.4241 C   0  0  0  0  0  0  0  0  0  0  0  0
    2.3975   -9.9037   17.2819 C   0  0  0  0  0  0  0  0  0  0  0  0
    8.1886   -7.9207   17.7947 C   0  0  0  0  0  0  0  0  0  0  0  0
    4.8780   -9.9844   18.6052 N   0  0  0  0  0  0  0  0  0  0  0  0
    7.2119   -8.5608   17.7850 C   0  0  0  0  0  0  0  0  0  0  0  0
   10.7093   -4.5844   18.8498 C   0  0  0  0  0  0  0  0  0  0  0  0
   -0.2895   -9.4520   14.1027 C   0  0  0  0  0  0  0  0  0  0  0  0
    7.1311   -6.2723   16.7460 C   0  0  0  0  0  0  0  0  0  0  0  0
    8.0766   -6.5420   17.1606 C   0  0  0  0  0  0  0  0  0  0  0  0
    5.6994   -7.0262   17.0210 C   0  0  0  0  0  0  0  0  0  0  0  0
   11.1074   -3.4039   18.3360 C   0  0  0  0  0  0  0  0  0  0  0  0
    2.9441   -8.2181   15.5672 O   0  0  0  0  0  0  0  0  0  0  0  0
    7.6706   -3.1091   27.0064 Cl  0  0  0  0  0  0  0  0  0  0  0  0
    9.6288   -4.5735   16.5246 C   0  0  0  0  0  0  0  0  0  0  0  0
    1.3471  -10.3372   17.3758 C   0  0  0  0  0  0  0  0  0  0  0  0
   -0.8145  -10.0724   13.2464 C   0  0  0  0  0  0  0  0  0  0  0  0
    2.7513  -11.4668   19.3105 He  0  0  0  0  0  0  0  0  0  0  0  0
    9.2890   -5.7660   17.1720 He  0  0  0  0  0  0  0  0  0  0  0  0
    8.7315   -3.6451   27.3431 He  0  0  0  0  0  0  0  0  0  0  0  0
    3.4384  -10.2679   18.7094 He  0  0  0  0  0  0  0  0  0  0  0  0
   -1.3181  -11.6214   13.2460 He  0  0  0  0  0  0  0  0  0  0  0  0
   10.5421   -3.6102   16.8469 He  0  0  0  0  0  0  0  0  0  0  0  0
    1.5980  -11.6882   19.1603 He  0  0  0  0  0  0  0  0  0  0  0  0
  1  4  1  0
  1 18  4  0
  1 23  3  0
  2  9  4  0
  3  5  3  0
  3  6  4  0
  3 11  1  0
  3 12  4  0
  3 15  4  0
  3 16  2  0
  3 21  4  0
  3 23  1  0
  3 26  3  0
  4  7  4  0
  4 15  2  0
  4 18  4  0
  4 23  3  0
  5 17  4  0
  6  9  4  0
  6 11  4  0
  6 14  1  0
  6 19  3  0
  6 24  4  0
  6 25  3  0
  7 12  4  0
  7 24  1  0
  8 11  4  0
  8 14  3  0
  8 23  1  0
 10 14  3  0
 10 26  4  0
 11 15  4  0
 11 16  3  0
 11 20  1  0
 11 21  1  0
 11 26  4  0
 12 15  2  0
 12 21  3  0
 13 26  4  0
 14 16  4  0
 14 18  2  0
 14 20  4  0
 16 20  3  0
 16 24  3  0
 16 27  3  0
 17 18  1  0
 17 22  4  0
 17 24  1  0
 17 27  2  0
 18 27  4  0
 19 20  4  0
 19 21  3  0
 21 27  3  0
M  END
$$$$

 Created by Python create_sdf_string function

 34 38  0  0  0  0  0  0  0  0999 V2000
    2.7826  -11.5038   19.3976 N   0  0  0  0  0  0  0  0  0  0  0  0
    9.2061   -5.6570   17.4931 C   0  0  0  0  0  0  0  0  0  0  0  0
    0.5232   -9.7595   16.4880 N   0  0  0  0  0  0  0  0  0  0  0  0
   10.0472   -3.4921   26.7321 N   0  0  0  0  0  0  0  0  0  0  0  0
    5.9157   -8.2954   17.3719 C   0  0  0  0  0  0  0  0  0  0  0  0
    8.9071   -3.7737   27.5119 N   0  0  0  0  0  0  0  0  0  0  0  0
   -0.1451  -10.3658   15.3953 C   0  0  0  0  0  0  0  0  0  0  0  0
    9.9352   -5.5960   18.7164 C   0  0  0  0  0  0  0  0  0  0  0  0
    8.2726   -2.4289   25.7805 C   0  0  0  0  0  0  0  0  0  0  0  0
    3.3741  -10.5752   18.5545 C   0  0  0  0  0  0  0  0  0  0  0  0
   -0.6885  -11.6489   15.4009 C   0  0  0  0  0  0  0  0  0  0  0  0
    3.4483   -9.0384   16.8699 C   0  0  0  0  0  0  0  0  0  0  0  0
   -1.3535  -11.4502   13.1861 C   0  0  0  0  0  0  0  0  0  0  0  0
    9.6126   -2.6840   25.6283 N   0  0  0  0  0  0  0  0  0  0  0  0
    0.7893  -11.3078   18.2698 N   0  0  0  0  0  0  0  0  0  0  0  0
    4.6997   -9.0977   17.5595 N   0  0  0  0  0  0  0  0  0  0  0  0
   -1.2796  -12.2024   14.3388 C   0  0  0  0  0  0  0  0  0  0  0  0
    2.6270   -9.9882   17.5486 C   0  0  0  0  0  0  0  0  0  0  0  0
   10.4916   -3.6302   16.8472 C   0  0  0  0  0  0  0  0  0  0  0  0
    8.2293   -7.9036   17.7533 C   0  0  0  0  0  0  0  0  0  0  0  0
    4.6361  -10.0754   18.5207 N   0  0  0  0  0  0  0  0  0  0  0  0
    7.1266   -8.6930   17.8372 C   0  0  0  0  0  0  0  0  0  0  0  0
   10.7774   -4.4915   19.0075 C   0  0  0  0  0  0  0  0  0  0  0  0
   -0.2683   -9.6595   14.2136 C   0  0  0  0  0  0  0  0  0  0  0  0
    6.9655   -6.2950   16.6559 C   0  0  0  0  0  0  0  0  0  0  0  0
    8.1707   -6.5666   17.2732 C   0  0  0  0  0  0  0  0  0  0  0  0
    5.8887   -7.0879   16.6909 C   0  0  0  0  0  0  0  0  0  0  0  0
   11.0160   -3.5383   18.0658 C   0  0  0  0  0  0  0  0  0  0  0  0
    3.1080   -8.3450   15.8458 O   0  0  0  0  0  0  0  0  0  0  0  0
    7.7779   -3.1318   26.8974 N   0  0  0  0  0  0  0  0  0  0  0  0
    9.5586   -4.6225   16.5541 C   0  0  0  0  0  0  0  0  0  0  0  0
    1.5423  -11.8561   19.2773 C   0  0  0  0  0  0  0  0  0  0  0  0
    1.3144  -10.3573   17.4229 C   0  0  0  0  0  0  0  0  0  0  0  0
   -0.8800  -10.1960   13.1105 C   0  0  0  0  0  0  0  0  0  0  0  0
  1 10  4  0
  1 32  4  0
  2  8  4  0
  2 26  1  0
  2 31  4  0
  3  7  1  0
  3 33  1  0
  4  6  4  0
  4 14  4  0
  5 16  1  0
  5 22  4  0
  5 27  4  0
  6 30  4  0
  7 11  4  0
  7 24  4  0
  8 23  4  0
  9 14  4  0
  9 30  4  0
 10 18  4  0
 10 21  4  0
 11 17  4  0
 12 16  4  0
 12 18  4  0
 12 29  1  0
 13 17  4  0
 13 34  4  0
 15 32  4  0
 15 33  4  0
 16 21  4  0
 18 33  4  0
 19 28  4  0
 19 31  4  0
 20 22  4  0
 20 26  4  0
 23 28  4  0
 24 34  4  0
 25 26  4  0
 25 27  4  0
M  END
$$$$

 Created by Python create_sdf_string function

 34 60  0  0  0  0  0  0  0  0999 V2000
    3.0303  -11.4949   19.4627 N   0  0  0  0  0  0  0  0  0  0  0  0
    9.1547   -5.6056   17.3446 C   0  0  0  0  0  0  0  0  0  0  0  0
    0.5842   -9.8385   16.6316 N   0  0  0  0  0  0  0  0  0  0  0  0
   10.1461   -3.5617   26.6396 N   0  0  0  0  0  0  0  0  0  0  0  0
    5.9308   -8.3380   17.5029 C   0  0  0  0  0  0  0  0  0  0  0  0
    9.0424   -3.6022   27.3351 N   0  0  0  0  0  0  0  0  0  0  0  0
   -0.0271  -10.2462   15.3457 C   0  0  0  0  0  0  0  0  0  0  0  0
    9.9986   -5.7283   18.6942 C   0  0  0  0  0  0  0  0  0  0  0  0
    8.2945   -2.5319   25.8749 C   0  0  0  0  0  0  0  0  0  0  0  0
    3.0641  -10.5240   18.4840 N   0  0  0  0  0  0  0  0  0  0  0  0
   -0.7165  -11.7325   15.4130 C   0  0  0  0  0  0  0  0  0  0  0  0
   -1.6535  -11.4409   13.2385 C   0  0  0  0  0  0  0  0  0  0  0  0
    9.7335   -2.6042   25.5859 N   0  0  0  0  0  0  0  0  0  0  0  0
    0.8372  -11.3330   18.1925 N   0  0  0  0  0  0  0  0  0  0  0  0
    4.3884   -8.7940   17.4378 N   0  0  0  0  0  0  0  0  0  0  0  0
   -1.5660  -12.1278   14.3587 C   0  0  0  0  0  0  0  0  0  0  0  0
    2.5121  -10.0162   17.2668 C   0  0  0  0  0  0  0  0  0  0  0  0
    8.1452   -8.0212   17.4488 N   0  0  0  0  0  0  0  0  0  0  0  0
    5.0505   -9.9367   18.2715 N   0  0  0  0  0  0  0  0  0  0  0  0
    7.1391   -8.6146   17.9179 C   0  0  0  0  0  0  0  0  0  0  0  0
   11.0002   -4.5186   19.1125 C   0  0  0  0  0  0  0  0  0  0  0  0
   -0.2418   -9.6544   14.2329 C   0  0  0  0  0  0  0  0  0  0  0  0
    7.2558   -6.3561   16.7263 C   0  0  0  0  0  0  0  0  0  0  0  0
    8.1825   -6.6227   17.2946 C   0  0  0  0  0  0  0  0  0  0  0  0
   10.8522   -3.6458   17.8787 C   0  0  0  0  0  0  0  0  0  0  0  0
    3.1099   -8.5882   16.0443 P   0  0  0  0  0  0  0  0  0  0  0  0
    7.8277   -3.3028   26.8602 N   0  0  0  0  0  0  0  0  0  0  0  0
    9.6458   -4.6516   16.6834 C   0  0  0  0  0  0  0  0  0  0  0  0
    1.6111  -11.8700   19.1526 C   0  0  0  0  0  0  0  0  0  0  0  0
    1.4164  -10.3011   17.5715 C   0  0  0  0  0  0  0  0  0  0  0  0
   -0.9720  -10.2737   12.9437 C   0  0  0  0  0  0  0  0  0  0  0  0
    3.3612   -8.9861   16.7108 He  0  0  0  0  0  0  0  0  0  0  0  0
   10.5291   -3.5488   16.8193 He  0  0  0  0  0  0  0  0  0  0  0  0
    5.7923   -6.6696   16.3896 He  0  0  0  0  0  0  0  0  0  0  0  0
  1  6  3  0
  1 10  4  0
  1 29  4  0
  2  8  4  0
  2 24  1  0
  2 28  4  0
  2 29  1  0
  3  7  1  0
  4  6  4  0
  4  7  1  0
  4 13  4  0
  5 12  1  0
  5 15  1  0
  5 20  4  0
  5 26  3  0
  5 27  1  0
  6 15  3  0
  6 27  4  0
  7 11  4  0
  7 22  4  0
  8 19  3  0
  8 21  4  0
  8 22  4  0
  9 13  4  0
  9 27  4  0
  9 31  1  0
 10 14  2  0
 10 15  3  0
 10 17  4  0
 10 19  3  0
 10 27  1  0
 11 16  4  0
 12 16  4  0
 12 22  2  0
 12 31  4  0
 14 15  3  0
 14 29  4  0
 14 30  4  0
 15 19  4  0
 15 25  1  0
 15 27  4  0
 15 29  1  0
 16 29  3  0
 16 31  1  0
 17 19  1  0
 17 30  4  0
 18 20  4  0
 18 24  4  0
 18 31  2  0
 19 28  3  0
 20 23  3  0
 21 25  4  0
 22 24  1  0
 22 26  1  0
 22 31  4  0
 23 24  4  0
 23 27  2  0
 23 30  4  0
 24 26  2  0
 27 31  2  0
M  END
$$$$

 Created by Python create_sdf_string function

 34 38  0  0  0  0  0  0  0  0999 V2000
    2.9303  -11.5248   19.3094 N   0  0  0  0  0  0  0  0  0  0  0  0
    9.2254   -5.6736   17.4635 C   0  0  0  0  0  0  0  0  0  0  0  0
    0.5490   -9.8532   16.4700 N   0  0  0  0  0  0  0  0  0  0  0  0
   10.1619   -3.4858   26.6495 N   0  0  0  0  0  0  0  0  0  0  0  0
    5.8676   -8.2634   17.3049 C   0  0  0  0  0  0  0  0  0  0  0  0
    9.0672   -3.8147   27.4509 N   0  0  0  0  0  0  0  0  0  0  0  0
   -0.1608  -10.3951   15.3724 C   0  0  0  0  0  0  0  0  0  0  0  0
    9.9955   -5.6517   18.6516 C   0  0  0  0  0  0  0  0  0  0  0  0
    8.2992   -2.4722   25.7684 C   0  0  0  0  0  0  0  0  0  0  0  0
    3.4138  -10.5488   18.4743 C   0  0  0  0  0  0  0  0  0  0  0  0
   -0.7967  -11.6209   15.4279 C   0  0  0  0  0  0  0  0  0  0  0  0
    3.3831   -9.0007   16.8282 C   0  0  0  0  0  0  0  0  0  0  0  0
   -1.5855  -11.4165   13.2281 C   0  0  0  0  0  0  0  0  0  0  0  0
    9.6979   -2.6395   25.5753 N   0  0  0  0  0  0  0  0  0  0  0  0
    0.8584  -11.3421   18.2873 N   0  0  0  0  0  0  0  0  0  0  0  0
    4.6740   -9.0388   17.4658 N   0  0  0  0  0  0  0  0  0  0  0  0
   -1.4865  -12.1303   14.4009 C   0  0  0  0  0  0  0  0  0  0  0  0
    2.6086   -9.9750   17.5086 C   0  0  0  0  0  0  0  0  0  0  0  0
   10.4619   -3.6163   16.8482 C   0  0  0  0  0  0  0  0  0  0  0  0
    8.1662   -7.8687   17.7962 C   0  0  0  0  0  0  0  0  0  0  0  0
    4.6622   -9.9850   18.4076 N   0  0  0  0  0  0  0  0  0  0  0  0
    7.0626   -8.6453   17.7919 C   0  0  0  0  0  0  0  0  0  0  0  0
   10.8670   -4.5673   18.9599 C   0  0  0  0  0  0  0  0  0  0  0  0
   -0.2374   -9.7208   14.1967 C   0  0  0  0  0  0  0  0  0  0  0  0
    6.9857   -6.2834   16.5988 C   0  0  0  0  0  0  0  0  0  0  0  0
    8.1820   -6.5804   17.2638 C   0  0  0  0  0  0  0  0  0  0  0  0
    5.8536   -7.0540   16.6797 C   0  0  0  0  0  0  0  0  0  0  0  0
   11.0389   -3.5976   18.0526 C   0  0  0  0  0  0  0  0  0  0  0  0
    3.0290   -8.3454   15.8242 N   0  0  0  0  0  0  0  0  0  0  0  0
    7.8758   -3.2399   26.8886 N   0  0  0  0  0  0  0  0  0  0  0  0
    9.5111   -4.6355   16.5540 C   0  0  0  0  0  0  0  0  0  0  0  0
    1.6639  -11.8583   19.2315 C   0  0  0  0  0  0  0  0  0  0  0  0
    1.3411  -10.3966   17.4103 C   0  0  0  0  0  0  0  0  0  0  0  0
   -0.9628  -10.1982   13.1150 C   0  0  0  0  0  0  0  0  0  0  0  0
  1 10  4  0
  1 32  4  0
  2  8  4  0
  2 26  1  0
  2 31  4  0
  3  7  1  0
  3 33  1  0
  4  6  4  0
  4 14  4  0
  5 16  1  0
  5 22  4  0
  5 27  4  0
  6 30  4  0
  7 11  4  0
  7 24  4  0
  8 23  4  0
  9 14  4  0
  9 30  4  0
 10 18  4  0
 10 21  4  0
 11 17  4  0
 12 16  4  0
 12 18  4  0
 12 29  1  0
 13 17  4  0
 13 34  4  0
 15 32  4  0
 15 33  4  0
 16 21  4  0
 18 33  4  0
 19 28  4  0
 19 31  4  0
 20 22  4  0
 20 26  4  0
 23 28  4  0
 24 34  4  0
 25 26  4  0
 25 27  4  0
M  END
$$$$

 Created by Python create_sdf_string function

 34 54  0  0  0  0  0  0  0  0999 V2000
    2.5625  -11.5933   19.2760 N   0  0  0  0  0  0  0  0  0  0  0  0
    9.2614   -5.8039   17.5191 C   0  0  0  0  0  0  0  0  0  0  0  0
    0.4788  -10.0818   16.6968 N   0  0  0  0  0  0  0  0  0  0  0  0
   10.2581   -3.2261   26.6927 N   0  0  0  0  0  0  0  0  0  0  0  0
    9.2414   -3.7625   27.3286 Cl  0  0  0  0  0  0  0  0  0  0  0  0
   -0.1542  -10.4904   15.6928 C   0  0  0  0  0  0  0  0  0  0  0  0
    9.9608   -5.4901   18.5176 C   0  0  0  0  0  0  0  0  0  0  0  0
    3.4037  -10.8237   18.6207 C   0  0  0  0  0  0  0  0  0  0  0  0
   -0.5649  -11.6621   15.2756 C   0  0  0  0  0  0  0  0  0  0  0  0
    3.7236   -9.1129   17.1387 C   0  0  0  0  0  0  0  0  0  0  0  0
   -1.4908  -11.3731   13.2340 C   0  0  0  0  0  0  0  0  0  0  0  0
    9.8439   -2.4626   25.6920 N   0  0  0  0  0  0  0  0  0  0  0  0
    0.7218  -11.2226   18.2286 N   0  0  0  0  0  0  0  0  0  0  0  0
    5.0339   -8.8723   17.6952 N   0  0  0  0  0  0  0  0  0  0  0  0
   -1.2922  -11.9796   14.4900 C   0  0  0  0  0  0  0  0  0  0  0  0
    2.4456   -9.8131   17.4990 C   0  0  0  0  0  0  0  0  0  0  0  0
   10.3766   -3.4557   16.8395 F   0  0  0  0  0  0  0  0  0  0  0  0
    8.1953   -8.3436   17.9304 C   0  0  0  0  0  0  0  0  0  0  0  0
    4.8305   -9.8018   18.3929 N   0  0  0  0  0  0  0  0  0  0  0  0
    6.9883   -8.6982   17.7954 C   0  0  0  0  0  0  0  0  0  0  0  0
   10.8664   -4.5859   19.0987 C   0  0  0  0  0  0  0  0  0  0  0  0
   -0.4536   -9.7481   14.2653 C   0  0  0  0  0  0  0  0  0  0  0  0
    7.1505   -6.5279   16.6849 C   0  0  0  0  0  0  0  0  0  0  0  0
    8.3290   -6.8610   17.3690 C   0  0  0  0  0  0  0  0  0  0  0  0
    5.7821   -6.7904   16.4084 N   0  0  0  0  0  0  0  0  0  0  0  0
    3.1670   -8.0925   15.9182 N   0  0  0  0  0  0  0  0  0  0  0  0
    7.9923   -3.2029   26.8740 F   0  0  0  0  0  0  0  0  0  0  0  0
    9.6684   -4.6287   16.6144 C   0  0  0  0  0  0  0  0  0  0  0  0
    1.5325  -12.0127   19.0725 C   0  0  0  0  0  0  0  0  0  0  0  0
    1.0715  -10.3147   17.3131 C   0  0  0  0  0  0  0  0  0  0  0  0
   -1.1244  -10.2122   13.4110 C   0  0  0  0  0  0  0  0  0  0  0  0
    6.2507   -8.1720   17.2983 He  0  0  0  0  0  0  0  0  0  0  0  0
    8.5550   -2.4794   25.8425 He  0  0  0  0  0  0  0  0  0  0  0  0
   11.0728   -3.6244   18.0100 He  0  0  0  0  0  0  0  0  0  0  0  0
  1  3  2  0
  1  8  4  0
  1 29  4  0
  2  7  4  0
  2 24  1  0
  2 28  4  0
  2 30  2  0
  3  6  1  0
  3 10  2  0
  3 30  1  0
  4  5  4  0
  4  7  1  0
  4  9  1  0
  4 12  4  0
  4 21  4  0
  5 27  4  0
  6  9  4  0
  6 18  4  0
  6 25  3  0
  7  9  4  0
  7 21  4  0
  8 15  1  0
  8 16  4  0
  8 17  4  0
  8 19  4  0
  8 24  4  0
  8 25  1  0
  8 28  4  0
  9 15  4  0
  9 30  4  0
 10 14  4  0
 10 16  4  0
 11 15  4  0
 11 30  4  0
 11 31  4  0
 13 29  4  0
 13 30  4  0
 14 17  4  0
 14 19  4  0
 16 29  3  0
 16 30  4  0
 16 31  4  0
 17 28  4  0
 18 24  4  0
 18 28  2  0
 19 23  1  0
 19 28  3  0
 20 22  3  0
 22 24  3  0
 22 25  3  0
 22 31  4  0
 23 25  4  0
 23 29  1  0
 25 27  3  0
M  END
$$$$

 Created by Python create_sdf_string function

 34 38  0  0  0  0  0  0  0  0999 V2000
    2.8268  -11.6072   19.3015 N   0  0  0  0  0  0  0  0  0  0  0  0
    9.2559   -5.6941   17.5209 C   0  0  0  0  0  0  0  0  0  0  0  0
    0.5465   -9.7849   16.5248 N   0  0  0  0  0  0  0  0  0  0  0  0
   10.3568   -3.2827   26.6901 N   0  0  0  0  0  0  0  0  0  0  0  0
    5.9392   -8.3065   17.3672 C   0  0  0  0  0  0  0  0  0  0  0  0
    9.2295   -3.7828   27.4092 N   0  0  0  0  0  0  0  0  0  0  0  0
   -0.1810  -10.3823   15.4810 C   0  0  0  0  0  0  0  0  0  0  0  0
   10.0334   -5.6345   18.7094 C   0  0  0  0  0  0  0  0  0  0  0  0
    8.4479   -2.3813   25.7536 N   0  0  0  0  0  0  0  0  0  0  0  0
    3.3848  -10.5909   18.5140 C   0  0  0  0  0  0  0  0  0  0  0  0
   -0.6715  -11.6805   15.4529 C   0  0  0  0  0  0  0  0  0  0  0  0
    3.4299   -8.9697   16.9602 C   0  0  0  0  0  0  0  0  0  0  0  0
   -1.5412  -11.3989   13.3008 C   0  0  0  0  0  0  0  0  0  0  0  0
    9.8518   -2.4345   25.6536 N   0  0  0  0  0  0  0  0  0  0  0  0
    0.7916  -11.3622   18.2727 N   0  0  0  0  0  0  0  0  0  0  0  0
    4.7264   -9.0587   17.5632 N   0  0  0  0  0  0  0  0  0  0  0  0
   -1.3117  -12.2006   14.3890 C   0  0  0  0  0  0  0  0  0  0  0  0
    2.5968   -9.9536   17.5758 C   0  0  0  0  0  0  0  0  0  0  0  0
   10.4316   -3.6349   16.8599 C   0  0  0  0  0  0  0  0  0  0  0  0
    8.2379   -7.9396   17.8585 C   0  0  0  0  0  0  0  0  0  0  0  0
    4.6502  -10.0557   18.4729 N   0  0  0  0  0  0  0  0  0  0  0  0
    7.0968   -8.7156   17.8842 C   0  0  0  0  0  0  0  0  0  0  0  0
   10.8745   -4.5257   18.9822 C   0  0  0  0  0  0  0  0  0  0  0  0
   -0.4213   -9.6404   14.3796 C   0  0  0  0  0  0  0  0  0  0  0  0
    7.0523   -6.3952   16.6109 C   0  0  0  0  0  0  0  0  0  0  0  0
    8.2297   -6.6433   17.3097 C   0  0  0  0  0  0  0  0  0  0  0  0
    5.9468   -7.1599   16.6809 C   0  0  0  0  0  0  0  0  0  0  0  0
   11.0201   -3.5448   18.0510 C   0  0  0  0  0  0  0  0  0  0  0  0
    3.0821   -8.1719   16.0244 N   0  0  0  0  0  0  0  0  0  0  0  0
    8.0500   -3.2253   26.8196 N   0  0  0  0  0  0  0  0  0  0  0  0
    9.5259   -4.6655   16.6045 C   0  0  0  0  0  0  0  0  0  0  0  0
    1.5797  -11.9262   19.1958 C   0  0  0  0  0  0  0  0  0  0  0  0
    1.2932  -10.3758   17.4399 C   0  0  0  0  0  0  0  0  0  0  0  0
   -1.0858  -10.1214   13.3013 C   0  0  0  0  0  0  0  0  0  0  0  0
  1 10  4  0
  1 32  4  0
  2  8  4  0
  2 26  1  0
  2 31  4  0
  3  7  1  0
  3 33  1  0
  4  6  4  0
  4 14  4  0
  5 16  1  0
  5 22  4  0
  5 27  4  0
  6 30  4  0
  7 11  4  0
  7 24  4  0
  8 23  4  0
  9 14  4  0
  9 30  4  0
 10 18  4  0
 10 21  4  0
 11 17  4  0
 12 16  4  0
 12 18  4  0
 12 29  1  0
 13 17  4  0
 13 34  4  0
 15 32  4  0
 15 33  4  0
 16 21  4  0
 18 33  4  0
 19 28  4  0
 19 31  4  0
 20 22  4  0
 20 26  4  0
 23 28  4  0
 24 34  4  0
 25 26  4  0
 25 27  4  0
M  END
$$$$

 Created by Python create_sdf_string function

 34 57  0  0  0  0  0  0  0  0999 V2000
    2.9565  -11.5130   19.2056 N   0  0  0  0  0  0  0  0  0  0  0  0
    9.2890   -5.5966   17.3071 C   0  0  0  0  0  0  0  0  0  0  0  0
    0.6080   -9.6417   16.3812 N   0  0  0  0  0  0  0  0  0  0  0  0
   10.3532   -3.2226   26.5481 N   0  0  0  0  0  0  0  0  0  0  0  0
    9.0262   -3.9983   27.4225 N   0  0  0  0  0  0  0  0  0  0  0  0
   -0.1637  -10.5374   15.5843 C   0  0  0  0  0  0  0  0  0  0  0  0
   10.3114   -5.7204   18.7484 C   0  0  0  0  0  0  0  0  0  0  0  0
    8.3856   -2.2990   25.7688 N   0  0  0  0  0  0  0  0  0  0  0  0
    3.6007  -10.7229   18.3889 C   0  0  0  0  0  0  0  0  0  0  0  0
   -0.6594  -11.6964   15.6396 C   0  0  0  0  0  0  0  0  0  0  0  0
    3.5323   -8.7660   17.0567 C   0  0  0  0  0  0  0  0  0  0  0  0
   -1.4217  -11.2218   13.1631 C   0  0  0  0  0  0  0  0  0  0  0  0
    9.8098   -2.6799   25.5498 N   0  0  0  0  0  0  0  0  0  0  0  0
    0.8070  -11.2979   18.3052 N   0  0  0  0  0  0  0  0  0  0  0  0
    4.8569   -9.2047   17.0954 N   0  0  0  0  0  0  0  0  0  0  0  0
   -1.2341  -12.2641   14.1854 C   0  0  0  0  0  0  0  0  0  0  0  0
    2.5843  -10.0394   17.6713 S   0  0  0  0  0  0  0  0  0  0  0  0
   10.3966   -3.6152   16.6961 C   0  0  0  0  0  0  0  0  0  0  0  0
    8.2544   -7.7136   17.8040 C   0  0  0  0  0  0  0  0  0  0  0  0
    4.5571  -10.2572   18.4474 N   0  0  0  0  0  0  0  0  0  0  0  0
    7.2114   -8.7770   17.7761 C   0  0  0  0  0  0  0  0  0  0  0  0
   10.9456   -4.5630   18.9938 C   0  0  0  0  0  0  0  0  0  0  0  0
    7.0208   -6.3320   16.5511 C   0  0  0  0  0  0  0  0  0  0  0  0
    8.0439   -6.5756   17.4013 C   0  0  0  0  0  0  0  0  0  0  0  0
    6.0973   -7.1684   16.8539 C   0  0  0  0  0  0  0  0  0  0  0  0
   11.1988   -3.5828   17.8260 C   0  0  0  0  0  0  0  0  0  0  0  0
    8.3525   -3.1310   26.7944 N   0  0  0  0  0  0  0  0  0  0  0  0
    9.3852   -4.6059   16.4997 C   0  0  0  0  0  0  0  0  0  0  0  0
    1.6996  -11.8250   19.1169 C   0  0  0  0  0  0  0  0  0  0  0  0
    1.2449  -10.3082   17.4886 C   0  0  0  0  0  0  0  0  0  0  0  0
   -1.0816  -10.1879   13.5382 C   0  0  0  0  0  0  0  0  0  0  0  0
    5.9795   -7.8770   17.3619 He  0  0  0  0  0  0  0  0  0  0  0  0
   -0.4502   -9.5146   14.3565 He  0  0  0  0  0  0  0  0  0  0  0  0
    2.8851   -8.0164   15.9949 He  0  0  0  0  0  0  0  0  0  0  0  0
  1  5  4  0
  1  9  4  0
  1 29  1  0
  2  7  4  0
  2  9  1  0
  2 19  3  0
  2 24  1  0
  2 28  4  0
  3  5  4  0
  3  6  1  0
  3 30  1  0
  4  5  4  0
  4 13  4  0
  5 27  4  0
  6 10  4  0
  6 30  3  0
  7 22  4  0
  8 13  4  0
  8 22  3  0
  8 25  3  0
  8 27  4  0
  9 17  4  0
  9 20  4  0
  9 24  1  0
 10 12  2  0
 10 16  4  0
 11 12  1  0
 11 15  4  0
 11 20  1  0
 12 16  1  0
 12 17  4  0
 12 20  2  0
 12 25  1  0
 12 31  4  0
 13 20  1  0
 14 19  3  0
 14 29  4  0
 15 20  4  0
 15 22  2  0
 17 30  4  0
 18 26  4  0
 18 28  4  0
 19 21  4  0
 19 22  3  0
 19 24  4  0
 19 28  1  0
 19 31  4  0
 20 26  1  0
 21 28  3  0
 21 29  4  0
 22 26  4  0
 23 24  4  0
 23 25  4  0
 23 28  1  0
 26 30  1  0
 27 30  4  0
 30 31  4  0
M  END
$$$$

 Created by Python create_sdf_string function

 34 38  0  0  0  0  0  0  0  0999 V2000
    2.9613  -11.5937   19.2395 N   0  0  0  0  0  0  0  0  0  0  0  0
    9.2502   -5.6331   17.4753 C   0  0  0  0  0  0  0  0  0  0  0  0
    0.5267   -9.7866   16.5817 N   0  0  0  0  0  0  0  0  0  0  0  0
   10.3077   -3.4113   26.5661 N   0  0  0  0  0  0  0  0  0  0  0  0
    5.9451   -8.2836   17.3290 C   0  0  0  0  0  0  0  0  0  0  0  0
    9.1982   -3.8279   27.3465 N   0  0  0  0  0  0  0  0  0  0  0  0
   -0.1747  -10.3679   15.4942 C   0  0  0  0  0  0  0  0  0  0  0  0
   10.1200   -5.6082   18.6182 C   0  0  0  0  0  0  0  0  0  0  0  0
    8.4281   -2.3596   25.7309 N   0  0  0  0  0  0  0  0  0  0  0  0
    3.4883  -10.6330   18.4327 C   0  0  0  0  0  0  0  0  0  0  0  0
   -0.6021  -11.6833   15.4348 C   0  0  0  0  0  0  0  0  0  0  0  0
    3.4567   -8.9355   16.9483 C   0  0  0  0  0  0  0  0  0  0  0  0
   -1.4694  -11.3776   13.2512 C   0  0  0  0  0  0  0  0  0  0  0  0
    9.8209   -2.5619   25.5467 N   0  0  0  0  0  0  0  0  0  0  0  0
    0.8626  -11.3160   18.3237 N   0  0  0  0  0  0  0  0  0  0  0  0
    4.7582   -9.0970   17.5155 N   0  0  0  0  0  0  0  0  0  0  0  0
   -1.2370  -12.1929   14.3372 C   0  0  0  0  0  0  0  0  0  0  0  0
    2.6720   -9.9541   17.5478 C   0  0  0  0  0  0  0  0  0  0  0  0
   10.4520   -3.5948   16.7572 C   0  0  0  0  0  0  0  0  0  0  0  0
    8.2038   -7.8612   17.8845 C   0  0  0  0  0  0  0  0  0  0  0  0
    4.7579  -10.1530   18.3428 N   0  0  0  0  0  0  0  0  0  0  0  0
    7.1082   -8.6512   17.8718 C   0  0  0  0  0  0  0  0  0  0  0  0
   11.0641   -4.5709   18.8267 C   0  0  0  0  0  0  0  0  0  0  0  0
   -0.4533   -9.5625   14.4338 C   0  0  0  0  0  0  0  0  0  0  0  0
    6.9864   -6.2898   16.6578 C   0  0  0  0  0  0  0  0  0  0  0  0
    8.1997   -6.5600   17.3257 C   0  0  0  0  0  0  0  0  0  0  0  0
    5.9372   -7.1064   16.6461 C   0  0  0  0  0  0  0  0  0  0  0  0
   11.1667   -3.5799   17.9067 C   0  0  0  0  0  0  0  0  0  0  0  0
    2.9854   -8.0686   16.0760 N   0  0  0  0  0  0  0  0  0  0  0  0
    8.0683   -3.1682   26.8428 N   0  0  0  0  0  0  0  0  0  0  0  0
    9.4626   -4.5849   16.5439 C   0  0  0  0  0  0  0  0  0  0  0  0
    1.6885  -11.8837   19.2007 C   0  0  0  0  0  0  0  0  0  0  0  0
    1.3525  -10.3671   17.4541 C   0  0  0  0  0  0  0  0  0  0  0  0
   -1.0960  -10.0791   13.3171 C   0  0  0  0  0  0  0  0  0  0  0  0
  1 10  4  0
  1 32  4  0
  2  8  4  0
  2 26  1  0
  2 31  4  0
  3  7  1  0
  3 33  1  0
  4  6  4  0
  4 14  4  0
  5 16  1  0
  5 22  4  0
  5 27  4  0
  6 30  4  0
  7 11  4  0
  7 24  4  0
  8 23  4  0
  9 14  4  0
  9 30  4  0
 10 18  4  0
 10 21  4  0
 11 17  4  0
 12 16  4  0
 12 18  4  0
 12 29  1  0
 13 17  4  0
 13 34  4  0
 15 32  4  0
 15 33  4  0
 16 21  4  0
 18 33  4  0
 19 28  4  0
 19 31  4  0
 20 22  4  0
 20 26  4  0
 23 28  4  0
 24 34  4  0
 25 26  4  0
 25 27  4  0
M  END
$$$$

 Created by Python create_sdf_string function

 34 61  0  0  0  0  0  0  0  0999 V2000
    2.9165  -11.6283   19.1744 N   0  0  0  0  0  0  0  0  0  0  0  0
    9.4103   -5.4966   17.5000 C   0  0  0  0  0  0  0  0  0  0  0  0
    0.7570   -9.8270   16.8029 N   0  0  0  0  0  0  0  0  0  0  0  0
   10.3723   -3.3177   26.4446 N   0  0  0  0  0  0  0  0  0  0  0  0
    5.8705   -8.3008   17.0715 C   0  0  0  0  0  0  0  0  0  0  0  0
    9.2792   -3.8700   27.2967 N   0  0  0  0  0  0  0  0  0  0  0  0
   -0.2958  -10.2408   15.3540 C   0  0  0  0  0  0  0  0  0  0  0  0
   10.0719   -5.5421   18.6741 C   0  0  0  0  0  0  0  0  0  0  0  0
    8.4167   -2.2469   25.8562 N   0  0  0  0  0  0  0  0  0  0  0  0
    3.7609  -10.7766   18.6630 C   0  0  0  0  0  0  0  0  0  0  0  0
   -0.6294  -11.5576   15.3446 C   0  0  0  0  0  0  0  0  0  0  0  0
    3.2679   -9.1707   16.7872 C   0  0  0  0  0  0  0  0  0  0  0  0
   -1.4790  -11.3359   12.8870 C   0  0  0  0  0  0  0  0  0  0  0  0
    9.7154   -2.3901   25.2755 N   0  0  0  0  0  0  0  0  0  0  0  0
    0.8148  -11.2170   18.3071 N   0  0  0  0  0  0  0  0  0  0  0  0
    4.8521   -9.2399   17.5434 N   0  0  0  0  0  0  0  0  0  0  0  0
    2.5284  -10.0592   17.6143 C   0  0  0  0  0  0  0  0  0  0  0  0
   10.4316   -3.5824   16.5685 C   0  0  0  0  0  0  0  0  0  0  0  0
    8.1548   -7.5997   18.1035 C   0  0  0  0  0  0  0  0  0  0  0  0
    4.5477  -10.2296   18.2292 O   0  0  0  0  0  0  0  0  0  0  0  0
    7.3588   -8.7147   17.6830 C   0  0  0  0  0  0  0  0  0  0  0  0
   11.4156   -4.5702   18.8326 C   0  0  0  0  0  0  0  0  0  0  0  0
   -0.6017   -9.6641   14.6985 C   0  0  0  0  0  0  0  0  0  0  0  0
    6.9632   -6.1324   16.7020 C   0  0  0  0  0  0  0  0  0  0  0  0
    8.2267   -6.6041   17.1595 C   0  0  0  0  0  0  0  0  0  0  0  0
    5.5371   -7.1834   16.8435 C   0  0  0  0  0  0  0  0  0  0  0  0
   11.3863   -3.5975   18.0630 C   0  0  0  0  0  0  0  0  0  0  0  0
    3.0901   -8.0754   16.1006 N   0  0  0  0  0  0  0  0  0  0  0  0
    9.4516   -4.6707   16.6170 C   0  0  0  0  0  0  0  0  0  0  0  0
    1.7556  -11.8759   19.0971 C   0  0  0  0  0  0  0  0  0  0  0  0
    1.6083  -10.4327   17.4185 C   0  0  0  0  0  0  0  0  0  0  0  0
   -0.9420  -10.0495   13.1256 C   0  0  0  0  0  0  0  0  0  0  0  0
   -1.3347  -12.2061   14.3760 He  0  0  0  0  0  0  0  0  0  0  0  0
    8.1106   -3.1838   26.9354 He  0  0  0  0  0  0  0  0  0  0  0  0
  1 10  4  0
  1 20  3  0
  1 25  1  0
  1 30  4  0
  2  5  4  0
  2  8  4  0
  2 25  1  0
  2 29  4  0
  3  7  1  0
  3 31  1  0
  4  6  4  0
  4 12  2  0
  4 14  4  0
  5  8  4  0
  5 16  1  0
  5 19  3  0
  5 21  4  0
  5 26  4  0
  7 11  4  0
  7 23  4  0
  7 26  4  0
  8 22  4  0
  8 29  3  0
  9 10  4  0
  9 14  4  0
  9 15  2  0
  9 16  2  0
  9 27  4  0
 10 16  3  0
 10 17  4  0
 10 20  4  0
 10 23  4  0
 10 24  2  0
 12 14  1  0
 12 16  4  0
 12 17  4  0
 12 19  2  0
 12 21  4  0
 12 28  1  0
 13 19  1  0
 13 20  4  0
 13 27  2  0
 13 32  4  0
 15 30  4  0
 15 31  4  0
 16 20  4  0
 17 22  4  0
 17 31  4  0
 18 27  4  0
 18 29  4  0
 19 21  4  0
 19 25  4  0
 20 22  1  0
 20 26  2  0
 21 32  3  0
 22 27  4  0
 23 32  4  0
 24 25  4  0
 24 26  4  0
 24 28  2  0
 30 32  4  0
M  END
$$$$

 Created by Python create_sdf_string function

 34 38  0  0  0  0  0  0  0  0999 V2000
    2.9508  -11.6700   19.2789 N   0  0  0  0  0  0  0  0  0  0  0  0
    9.2478   -5.5846   17.5195 C   0  0  0  0  0  0  0  0  0  0  0  0
    0.5597   -9.8368   16.5637 N   0  0  0  0  0  0  0  0  0  0  0  0
   10.3375   -3.3480   26.3637 N   0  0  0  0  0  0  0  0  0  0  0  0
    5.9114   -8.3093   17.3374 C   0  0  0  0  0  0  0  0  0  0  0  0
    9.3196   -3.8257   27.2722 N   0  0  0  0  0  0  0  0  0  0  0  0
   -0.1835  -10.3581   15.4703 C   0  0  0  0  0  0  0  0  0  0  0  0
   10.1596   -5.6013   18.6093 C   0  0  0  0  0  0  0  0  0  0  0  0
    8.3421   -2.2757   25.8006 N   0  0  0  0  0  0  0  0  0  0  0  0
    3.5009  -10.7291   18.4405 C   0  0  0  0  0  0  0  0  0  0  0  0
   -0.6860  -11.6554   15.3828 C   0  0  0  0  0  0  0  0  0  0  0  0
    3.4535   -9.0830   16.9653 C   0  0  0  0  0  0  0  0  0  0  0  0
   -1.4403  -11.3490   13.1914 C   0  0  0  0  0  0  0  0  0  0  0  0
    9.7222   -2.4374   25.4415 N   0  0  0  0  0  0  0  0  0  0  0  0
    0.8862  -11.3924   18.3093 N   0  0  0  0  0  0  0  0  0  0  0  0
    4.7637   -9.1740   17.5166 N   0  0  0  0  0  0  0  0  0  0  0  0
   -1.2608  -12.1428   14.2976 C   0  0  0  0  0  0  0  0  0  0  0  0
    2.6924  -10.0515   17.5516 C   0  0  0  0  0  0  0  0  0  0  0  0
   10.5331   -3.6087   16.7407 C   0  0  0  0  0  0  0  0  0  0  0  0
    8.1839   -7.8251   17.8752 C   0  0  0  0  0  0  0  0  0  0  0  0
    4.7782  -10.2265   18.3374 N   0  0  0  0  0  0  0  0  0  0  0  0
    7.1165   -8.6539   17.8731 C   0  0  0  0  0  0  0  0  0  0  0  0
   11.1392   -4.6234   18.8146 C   0  0  0  0  0  0  0  0  0  0  0  0
   -0.4372   -9.5726   14.3806 C   0  0  0  0  0  0  0  0  0  0  0  0
    6.9329   -6.2498   16.7132 C   0  0  0  0  0  0  0  0  0  0  0  0
    8.1572   -6.4999   17.3763 C   0  0  0  0  0  0  0  0  0  0  0  0
    5.8901   -7.0892   16.6662 C   0  0  0  0  0  0  0  0  0  0  0  0
   11.2851   -3.6510   17.8694 C   0  0  0  0  0  0  0  0  0  0  0  0
    3.0473   -8.1982   16.0424 N   0  0  0  0  0  0  0  0  0  0  0  0
    8.1019   -3.1598   26.9055 N   0  0  0  0  0  0  0  0  0  0  0  0
    9.4738   -4.5540   16.5841 C   0  0  0  0  0  0  0  0  0  0  0  0
    1.6879  -11.9426   19.2099 C   0  0  0  0  0  0  0  0  0  0  0  0
    1.3685  -10.4295   17.4521 C   0  0  0  0  0  0  0  0  0  0  0  0
   -1.0604  -10.0169   13.2555 C   0  0  0  0  0  0  0  0  0  0  0  0
  1 10  4  0
  1 32  4  0
  2  8  4  0
  2 26  1  0
  2 31  4  0
  3  7  1  0
  3 33  1  0
  4  6  4  0
  4 14  4  0
  5 16  1  0
  5 22  4  0
  5 27  4  0
  6 30  4  0
  7 11  4  0
  7 24  4  0
  8 23  4  0
  9 14  4  0
  9 30  4  0
 10 18  4  0
 10 21  4  0
 11 17  4  0
 12 16  4  0
 12 18  4  0
 12 29  1  0
 13 17  4  0
 13 34  4  0
 15 32  4  0
 15 33  4  0
 16 21  4  0
 18 33  4  0
 19 28  4  0
 19 31  4  0
 20 22  4  0
 20 26  4  0
 23 28  4  0
 24 34  4  0
 25 26  4  0
 25 27  4  0
M  END
$$$$

 Created by Python create_sdf_string function

 34 61  0  0  0  0  0  0  0  0999 V2000
    3.0864  -11.7785   19.2512 N   0  0  0  0  0  0  0  0  0  0  0  0
    9.0232   -5.5791   17.5506 C   0  0  0  0  0  0  0  0  0  0  0  0
    0.4725   -9.6851   16.5191 N   0  0  0  0  0  0  0  0  0  0  0  0
   10.1741   -3.4050   26.5076 N   0  0  0  0  0  0  0  0  0  0  0  0
    5.8621   -8.5611   17.1779 C   0  0  0  0  0  0  0  0  0  0  0  0
    9.2132   -3.7829   27.1049 N   0  0  0  0  0  0  0  0  0  0  0  0
   -0.1050  -10.3973   15.4240 C   0  0  0  0  0  0  0  0  0  0  0  0
   10.1451   -5.4927   18.7036 C   0  0  0  0  0  0  0  0  0  0  0  0
    8.3501   -2.0339   25.9844 N   0  0  0  0  0  0  0  0  0  0  0  0
    3.5642  -10.8851   18.3312 C   0  0  0  0  0  0  0  0  0  0  0  0
   -0.8463  -11.7789   15.3862 C   0  0  0  0  0  0  0  0  0  0  0  0
    3.5731   -9.0462   16.9541 C   0  0  0  0  0  0  0  0  0  0  0  0
   -1.7008  -11.1358   13.0973 C   0  0  0  0  0  0  0  0  0  0  0  0
    9.8327   -2.3394   25.3378 N   0  0  0  0  0  0  0  0  0  0  0  0
    1.0009  -11.5660   18.3322 N   0  0  0  0  0  0  0  0  0  0  0  0
    4.8351   -9.3018   17.6849 N   0  0  0  0  0  0  0  0  0  0  0  0
   -1.2043  -12.2084   14.4544 C   0  0  0  0  0  0  0  0  0  0  0  0
    2.5104  -10.0225   17.6815 C   0  0  0  0  0  0  0  0  0  0  0  0
   10.6610   -3.7183   16.6229 C   0  0  0  0  0  0  0  0  0  0  0  0
    8.0519   -8.1402   17.8002 C   0  0  0  0  0  0  0  0  0  0  0  0
    7.1684   -8.6217   17.8717 C   0  0  0  0  0  0  0  0  0  0  0  0
   11.1369   -4.6796   18.6623 C   0  0  0  0  0  0  0  0  0  0  0  0
   -0.4465   -9.6259   14.3063 C   0  0  0  0  0  0  0  0  0  0  0  0
    6.9010   -6.2426   16.7453 C   0  0  0  0  0  0  0  0  0  0  0  0
    8.3036   -6.3769   17.4372 C   0  0  0  0  0  0  0  0  0  0  0  0
    5.8173   -7.0241   16.8743 C   0  0  0  0  0  0  0  0  0  0  0  0
   11.2078   -3.6626   18.0511 C   0  0  0  0  0  0  0  0  0  0  0  0
    2.9951   -7.9236   16.3090 N   0  0  0  0  0  0  0  0  0  0  0  0
    8.1564   -3.0273   27.0656 N   0  0  0  0  0  0  0  0  0  0  0  0
    9.4090   -4.6674   16.6470 C   0  0  0  0  0  0  0  0  0  0  0  0
    1.5889  -11.8729   19.0601 C   0  0  0  0  0  0  0  0  0  0  0  0
    1.5497  -10.4948   17.5513 C   0  0  0  0  0  0  0  0  0  0  0  0
   -0.8565  -10.0271   13.2865 C   0  0  0  0  0  0  0  0  0  0  0  0
    4.9456  -10.0729   18.3914 He  0  0  0  0  0  0  0  0  0  0  0  0
  1 10  4  0
  1 12  1  0
  1 20  3  0
  1 21  2  0
  2  8  4  0
  2 21  3  0
  2 25  1  0
  2 30  4  0
  3  7  1  0
  3 26  2  0
  3 32  1  0
  4  6  4  0
  4 14  4  0
  5  9  4  0
  5 21  4  0
  5 26  4  0
  5 28  3  0
  6 30  3  0
  6 32  3  0
  7 13  2  0
  7 23  4  0
  8  9  4  0
  8 16  1  0
  8 18  4  0
  8 22  4  0
  8 27  3  0
  8 29  4  0
  9 14  4  0
  9 29  4  0
 10 18  4  0
 10 24  2  0
 11 17  4  0
 12 13  3  0
 12 16  4  0
 12 18  3  0
 12 28  1  0
 13 17  4  0
 13 22  3  0
 13 33  4  0
 14 19  2  0
 15 28  4  0
 15 31  4  0
 15 32  4  0
 17 26  1  0
 18 26  3  0
 18 32  4  0
 19 27  4  0
 19 30  4  0
 19 33  2  0
 20 21  4  0
 20 25  4  0
 21 22  4  0
 21 24  3  0
 21 27  2  0
 22 27  4  0
 22 28  2  0
 23 33  4  0
 24 25  4  0
 24 26  4  0
 27 31  4  0
 27 32  1  0
M  END
$$$$

 Created by Python create_sdf_string function

 34 38  0  0  0  0  0  0  0  0999 V2000
    3.0019  -11.7392   19.2605 N   0  0  0  0  0  0  0  0  0  0  0  0
    9.2183   -5.6319   17.5333 C   0  0  0  0  0  0  0  0  0  0  0  0
    0.5774   -9.8577   16.5653 N   0  0  0  0  0  0  0  0  0  0  0  0
   10.2350   -3.3935   26.3279 N   0  0  0  0  0  0  0  0  0  0  0  0
    5.9095   -8.3385   17.3940 C   0  0  0  0  0  0  0  0  0  0  0  0
    9.2124   -3.7856   27.1977 N   0  0  0  0  0  0  0  0  0  0  0  0
   -0.1496  -10.3823   15.4604 C   0  0  0  0  0  0  0  0  0  0  0  0
   10.0782   -5.6184   18.6609 C   0  0  0  0  0  0  0  0  0  0  0  0
    8.3882   -2.0720   25.9196 N   0  0  0  0  0  0  0  0  0  0  0  0
    3.5253  -10.7547   18.4725 C   0  0  0  0  0  0  0  0  0  0  0  0
   -0.7052  -11.6627   15.4087 C   0  0  0  0  0  0  0  0  0  0  0  0
    3.4593   -9.0448   17.0564 C   0  0  0  0  0  0  0  0  0  0  0  0
   -1.5143  -11.3106   13.2344 C   0  0  0  0  0  0  0  0  0  0  0  0
    9.7288   -2.3494   25.4842 N   0  0  0  0  0  0  0  0  0  0  0  0
    0.9103  -11.4559   18.2904 N   0  0  0  0  0  0  0  0  0  0  0  0
    4.7685   -9.1832   17.5907 N   0  0  0  0  0  0  0  0  0  0  0  0
   -1.3807  -12.1184   14.3394 C   0  0  0  0  0  0  0  0  0  0  0  0
    2.6939  -10.0734   17.5909 C   0  0  0  0  0  0  0  0  0  0  0  0
   10.5064   -3.6831   16.7482 C   0  0  0  0  0  0  0  0  0  0  0  0
    8.1714   -7.8697   17.8811 C   0  0  0  0  0  0  0  0  0  0  0  0
    4.8082  -10.2691   18.3827 N   0  0  0  0  0  0  0  0  0  0  0  0
    7.1310   -8.7135   17.8401 C   0  0  0  0  0  0  0  0  0  0  0  0
   11.0661   -4.6304   18.8402 C   0  0  0  0  0  0  0  0  0  0  0  0
   -0.3300   -9.5971   14.3629 C   0  0  0  0  0  0  0  0  0  0  0  0
    6.8945   -6.2783   16.7896 C   0  0  0  0  0  0  0  0  0  0  0  0
    8.1395   -6.5470   17.3985 C   0  0  0  0  0  0  0  0  0  0  0  0
    5.8489   -7.1115   16.7680 C   0  0  0  0  0  0  0  0  0  0  0  0
   11.2627   -3.7147   17.8654 C   0  0  0  0  0  0  0  0  0  0  0  0
    2.9872   -8.1050   16.2584 N   0  0  0  0  0  0  0  0  0  0  0  0
    8.0938   -2.9773   26.9838 N   0  0  0  0  0  0  0  0  0  0  0  0
    9.4598   -4.6181   16.6018 C   0  0  0  0  0  0  0  0  0  0  0  0
    1.7146  -12.0578   19.1519 C   0  0  0  0  0  0  0  0  0  0  0  0
    1.3979  -10.4692   17.4471 C   0  0  0  0  0  0  0  0  0  0  0  0
   -1.0082  -10.0233   13.2511 C   0  0  0  0  0  0  0  0  0  0  0  0
  1 10  4  0
  1 32  4  0
  2  8  4  0
  2 26  1  0
  2 31  4  0
  3  7  1  0
  3 33  1  0
  4  6  4  0
  4 14  4  0
  5 16  1  0
  5 22  4  0
  5 27  4  0
  6 30  4  0
  7 11  4  0
  7 24  4  0
  8 23  4  0
  9 14  4  0
  9 30  4  0
 10 18  4  0
 10 21  4  0
 11 17  4  0
 12 16  4  0
 12 18  4  0
 12 29  1  0
 13 17  4  0
 13 34  4  0
 15 32  4  0
 15 33  4  0
 16 21  4  0
 18 33  4  0
 19 28  4  0
 19 31  4  0
 20 22  4  0
 20 26  4  0
 23 28  4  0
 24 34  4  0
 25 26  4  0
 25 27  4  0
M  END
$$$$

 Created by Python create_sdf_string function

 34 62  0  0  0  0  0  0  0  0999 V2000
    2.8263  -11.7279   19.2358 N   0  0  0  0  0  0  0  0  0  0  0  0
    9.2721   -5.6399   17.3223 S   0  0  0  0  0  0  0  0  0  0  0  0
    0.5076   -9.9220   16.4256 N   0  0  0  0  0  0  0  0  0  0  0  0
   10.1136   -3.3310   26.1670 N   0  0  0  0  0  0  0  0  0  0  0  0
    6.1684   -8.4983   17.2387 C   0  0  0  0  0  0  0  0  0  0  0  0
    9.1597   -4.0252   27.1697 N   0  0  0  0  0  0  0  0  0  0  0  0
   -0.2926  -10.4734   15.6936 C   0  0  0  0  0  0  0  0  0  0  0  0
   10.0360   -5.3466   18.7868 C   0  0  0  0  0  0  0  0  0  0  0  0
    8.4768   -2.2051   25.7560 N   0  0  0  0  0  0  0  0  0  0  0  0
    3.6514  -10.7294   18.4485 C   0  0  0  0  0  0  0  0  0  0  0  0
   -0.7655  -11.7932   15.3854 C   0  0  0  0  0  0  0  0  0  0  0  0
    3.5485   -9.0674   17.0743 C   0  0  0  0  0  0  0  0  0  0  0  0
   -1.7149  -11.3182   13.3309 C   0  0  0  0  0  0  0  0  0  0  0  0
    9.8695   -2.3338   25.4231 N   0  0  0  0  0  0  0  0  0  0  0  0
    0.9048  -11.5333   18.3582 N   0  0  0  0  0  0  0  0  0  0  0  0
    4.7867   -9.0631   17.5072 N   0  0  0  0  0  0  0  0  0  0  0  0
   -1.2604  -11.9172   14.4271 C   0  0  0  0  0  0  0  0  0  0  0  0
    2.6300  -10.0959   17.6607 C   0  0  0  0  0  0  0  0  0  0  0  0
   10.5095   -3.6416   16.6362 C   0  0  0  0  0  0  0  0  0  0  0  0
    8.1053   -7.9398   18.2209 C   0  0  0  0  0  0  0  0  0  0  0  0
    5.0014  -10.2057   18.7558 N   0  0  0  0  0  0  0  0  0  0  0  0
    7.0860   -8.5740   17.7675 C   0  0  0  0  0  0  0  0  0  0  0  0
   11.2005   -4.5790   18.8302 C   0  0  0  0  0  0  0  0  0  0  0  0
   -0.3664   -9.4181   14.2070 C   0  0  0  0  0  0  0  0  0  0  0  0
    6.8175   -6.2530   16.8863 C   0  0  0  0  0  0  0  0  0  0  0  0
    8.1437   -6.4721   17.4927 C   0  0  0  0  0  0  0  0  0  0  0  0
    5.4993   -7.0461   16.7065 C   0  0  0  0  0  0  0  0  0  0  0  0
   11.1654   -3.6542   18.0975 C   0  0  0  0  0  0  0  0  0  0  0  0
    8.1483   -2.9324   26.9860 P   0  0  0  0  0  0  0  0  0  0  0  0
    9.3435   -4.7400   16.4423 C   0  0  0  0  0  0  0  0  0  0  0  0
    1.7928  -12.0042   19.1811 C   0  0  0  0  0  0  0  0  0  0  0  0
    1.3552  -10.4933   17.3661 C   0  0  0  0  0  0  0  0  0  0  0  0
   -1.1570  -10.0469   13.1181 C   0  0  0  0  0  0  0  0  0  0  0  0
    3.0248   -8.1770   16.2573 He  0  0  0  0  0  0  0  0  0  0  0  0
  1 10  4  0
  1 16  2  0
  1 20  4  0
  1 31  4  0
  2  6  4  0
  2  8  4  0
  2 15  4  0
  2 20  3  0
  2 26  1  0
  2 28  4  0
  2 30  4  0
  3  7  3  0
  3 32  1  0
  4  6  4  0
  4 13  3  0
  4 14  2  0
  5  7  1  0
  5 16  1  0
  5 22  4  0
  5 27  4  0
  5 30  2  0
  6 22  1  0
  6 29  4  0
  7 11  4  0
  7 24  4  0
  7 28  2  0
  8 10  4  0
  8 19  1  0
  8 23  4  0
  9 14  4  0
  9 29  4  0
 10 18  4  0
 10 21  4  0
 10 30  1  0
 11 17  2  0
 11 30  4  0
 12 13  4  0
 12 16  4  0
 12 28  2  0
 13 14  4  0
 13 17  4  0
 13 22  3  0
 13 33  4  0
 14 23  2  0
 14 30  1  0
 14 32  1  0
 15 21  4  0
 15 31  4  0
 15 32  4  0
 16 21  4  0
 16 25  2  0
 16 33  4  0
 18 32  4  0
 19 28  1  0
 20 22  4  0
 20 26  4  0
 20 32  2  0
 21 29  2  0
 23 28  4  0
 24 33  4  0
 25 26  4  0
 25 27  4  0
M  END
$$$$

 Created by Python create_sdf_string function

 34 38  0  0  0  0  0  0  0  0999 V2000
    2.9572  -11.7264   19.3112 N   0  0  0  0  0  0  0  0  0  0  0  0
    9.1932   -5.6051   17.5757 C   0  0  0  0  0  0  0  0  0  0  0  0
    0.5859   -9.9103   16.5305 N   0  0  0  0  0  0  0  0  0  0  0  0
   10.2311   -3.4700   26.2054 N   0  0  0  0  0  0  0  0  0  0  0  0
    5.8954   -8.3246   17.4584 C   0  0  0  0  0  0  0  0  0  0  0  0
    9.2090   -3.8837   27.1101 N   0  0  0  0  0  0  0  0  0  0  0  0
   -0.1828  -10.3958   15.4471 C   0  0  0  0  0  0  0  0  0  0  0  0
   10.0421   -5.5407   18.6969 C   0  0  0  0  0  0  0  0  0  0  0  0
    8.4187   -2.0940   25.7868 N   0  0  0  0  0  0  0  0  0  0  0  0
    3.5023  -10.7324   18.5297 C   0  0  0  0  0  0  0  0  0  0  0  0
   -0.7416  -11.6505   15.4284 C   0  0  0  0  0  0  0  0  0  0  0  0
    3.4580   -9.0825   17.0321 C   0  0  0  0  0  0  0  0  0  0  0  0
   -1.6400  -11.3062   13.2806 C   0  0  0  0  0  0  0  0  0  0  0  0
    9.7649   -2.3907   25.4197 N   0  0  0  0  0  0  0  0  0  0  0  0
    0.9208  -11.4942   18.2681 N   0  0  0  0  0  0  0  0  0  0  0  0
    4.7484   -9.1832   17.6308 N   0  0  0  0  0  0  0  0  0  0  0  0
   -1.4557  -12.1042   14.3749 C   0  0  0  0  0  0  0  0  0  0  0  0
    2.6769  -10.0820   17.6033 C   0  0  0  0  0  0  0  0  0  0  0  0
   10.5128   -3.6695   16.7203 C   0  0  0  0  0  0  0  0  0  0  0  0
    8.1388   -7.8306   17.9842 C   0  0  0  0  0  0  0  0  0  0  0  0
    4.7650  -10.2361   18.4920 N   0  0  0  0  0  0  0  0  0  0  0  0
    7.0857   -8.6638   17.9752 C   0  0  0  0  0  0  0  0  0  0  0  0
   11.0308   -4.5139   18.8646 C   0  0  0  0  0  0  0  0  0  0  0  0
   -0.4104   -9.5926   14.3715 C   0  0  0  0  0  0  0  0  0  0  0  0
    6.8736   -6.2856   16.7907 C   0  0  0  0  0  0  0  0  0  0  0  0
    8.0914   -6.5189   17.4464 C   0  0  0  0  0  0  0  0  0  0  0  0
    5.8481   -7.1229   16.7746 C   0  0  0  0  0  0  0  0  0  0  0  0
   11.1779   -3.6364   17.8568 C   0  0  0  0  0  0  0  0  0  0  0  0
    3.0067   -8.2124   16.1745 N   0  0  0  0  0  0  0  0  0  0  0  0
    8.0966   -2.9833   26.8759 N   0  0  0  0  0  0  0  0  0  0  0  0
    9.4677   -4.6486   16.5763 C   0  0  0  0  0  0  0  0  0  0  0  0
    1.7078  -12.0671   19.1802 C   0  0  0  0  0  0  0  0  0  0  0  0
    1.3986  -10.5022   17.4530 C   0  0  0  0  0  0  0  0  0  0  0  0
   -1.1400  -10.0194   13.2504 C   0  0  0  0  0  0  0  0  0  0  0  0
  1 10  4  0
  1 32  4  0
  2  8  4  0
  2 26  1  0
  2 31  4  0
  3  7  1  0
  3 33  1  0
  4  6  4  0
  4 14  4  0
  5 16  1  0
  5 22  4  0
  5 27  4  0
  6 30  4  0
  7 11  4  0
  7 24  4  0
  8 23  4  0
  9 14  4  0
  9 30  4  0
 10 18  4  0
 10 21  4  0
 11 17  4  0
 12 16  4  0
 12 18  4  0
 12 29  1  0
 13 17  4  0
 13 34  4  0
 15 32  4  0
 15 33  4  0
 16 21  4  0
 18 33  4  0
 19 28  4  0
 19 31  4  0
 20 22  4  0
 20 26  4  0
 23 28  4  0
 24 34  4  0
 25 26  4  0
 25 27  4  0
M  END
$$$$

 Created by Python create_sdf_string function

 34 58  0  0  0  0  0  0  0  0999 V2000
    3.0311  -11.8626   19.0943 N   0  0  0  0  0  0  0  0  0  0  0  0
    9.1711   -5.5821   17.5239 C   0  0  0  0  0  0  0  0  0  0  0  0
    0.7051   -9.9157   16.5115 N   0  0  0  0  0  0  0  0  0  0  0  0
   10.3531   -3.3448   26.1646 N   0  0  0  0  0  0  0  0  0  0  0  0
    5.9331   -8.1643   17.2275 O   0  0  0  0  0  0  0  0  0  0  0  0
    9.3543   -3.8594   27.2625 N   0  0  0  0  0  0  0  0  0  0  0  0
   -0.0389  -10.3962   15.5549 C   0  0  0  0  0  0  0  0  0  0  0  0
    9.9936   -5.5309   18.6672 C   0  0  0  0  0  0  0  0  0  0  0  0
    8.5434   -2.0150   25.8224 N   0  0  0  0  0  0  0  0  0  0  0  0
    3.6623  -11.0434   18.4776 C   0  0  0  0  0  0  0  0  0  0  0  0
   -0.7090  -11.5511   15.3164 C   0  0  0  0  0  0  0  0  0  0  0  0
    3.4820   -9.0447   17.2366 C   0  0  0  0  0  0  0  0  0  0  0  0
   -1.5715  -11.1731   13.0594 C   0  0  0  0  0  0  0  0  0  0  0  0
    9.8083   -2.3432   25.4101 O   0  0  0  0  0  0  0  0  0  0  0  0
    0.8682  -11.5170   18.4358 N   0  0  0  0  0  0  0  0  0  0  0  0
    4.6726   -9.0315   17.3276 N   0  0  0  0  0  0  0  0  0  0  0  0
   -1.3311  -11.8894   14.4877 C   0  0  0  0  0  0  0  0  0  0  0  0
    2.7237  -10.2550   17.6259 C   0  0  0  0  0  0  0  0  0  0  0  0
   10.4617   -3.6477   16.8231 C   0  0  0  0  0  0  0  0  0  0  0  0
    8.4203   -7.9220   18.2052 C   0  0  0  0  0  0  0  0  0  0  0  0
    4.8745  -10.1437   18.6861 N   0  0  0  0  0  0  0  0  0  0  0  0
    7.0571   -8.7431   17.7840 C   0  0  0  0  0  0  0  0  0  0  0  0
   11.1204   -4.6009   18.7748 C   0  0  0  0  0  0  0  0  0  0  0  0
   -0.4247   -9.6714   14.5070 C   0  0  0  0  0  0  0  0  0  0  0  0
    6.8250   -6.0202   16.7644 C   0  0  0  0  0  0  0  0  0  0  0  0
    7.9318   -6.6453   17.5145 C   0  0  0  0  0  0  0  0  0  0  0  0
    5.9944   -6.9408   16.7686 C   0  0  0  0  0  0  0  0  0  0  0  0
   11.2946   -3.5026   17.8816 C   0  0  0  0  0  0  0  0  0  0  0  0
    3.0813   -7.9972   16.3059 N   0  0  0  0  0  0  0  0  0  0  0  0
    7.9038   -3.0677   26.9347 N   0  0  0  0  0  0  0  0  0  0  0  0
    9.4080   -4.4883   16.6675 C   0  0  0  0  0  0  0  0  0  0  0  0
    1.7731  -12.1833   19.2405 C   0  0  0  0  0  0  0  0  0  0  0  0
    1.4561  -10.6324   17.5938 C   0  0  0  0  0  0  0  0  0  0  0  0
   -1.1931   -9.9096   13.1799 C   0  0  0  0  0  0  0  0  0  0  0  0
  1 15  3  0
  1 23  3  0
  1 32  4  0
  2  8  4  0
  2 21  2  0
  2 26  1  0
  2 31  4  0
  3  7  1  0
  3 29  3  0
  3 33  1  0
  4  6  4  0
  4 14  4  0
  5  7  1  0
  5 11  3  0
  5 12  3  0
  5 13  4  0
  5 16  1  0
  5 22  4  0
  5 27  4  0
  6  9  1  0
  6 26  2  0
  6 30  4  0
  7 11  4  0
  7 15  1  0
  7 24  4  0
  8 23  4  0
  9 14  4  0
  9 19  1  0
  9 30  4  0
 10 13  3  0
 10 18  4  0
 10 21  4  0
 11 17  4  0
 12 14  2  0
 12 18  4  0
 12 27  1  0
 12 29  1  0
 13 17  4  0
 13 34  4  0
 15 19  3  0
 15 21  1  0
 15 33  4  0
 16 21  4  0
 18 21  2  0
 18 24  3  0
 18 31  1  0
 18 33  4  0
 19 28  4  0
 19 31  4  0
 20 22  4  0
 20 23  3  0
 20 26  4  0
 20 33  3  0
 23 31  4  0
 23 33  1  0
 24 34  4  0
 25 27  4  0
 29 34  4  0
M  END
$$$$

 Created by Python create_sdf_string function

 34 38  0  0  0  0  0  0  0  0999 V2000
    3.0430  -11.8798   19.2616 N   0  0  0  0  0  0  0  0  0  0  0  0
    9.1807   -5.5699   17.5887 C   0  0  0  0  0  0  0  0  0  0  0  0
    0.6628   -9.9525   16.5729 N   0  0  0  0  0  0  0  0  0  0  0  0
   10.3104   -3.3864   26.2317 N   0  0  0  0  0  0  0  0  0  0  0  0
    5.8859   -8.2693   17.4460 C   0  0  0  0  0  0  0  0  0  0  0  0
    9.2866   -3.8196   27.1686 N   0  0  0  0  0  0  0  0  0  0  0  0
   -0.1213  -10.3833   15.4844 C   0  0  0  0  0  0  0  0  0  0  0  0
   10.0918   -5.5639   18.6806 C   0  0  0  0  0  0  0  0  0  0  0  0
    8.4278   -2.0919   25.8358 N   0  0  0  0  0  0  0  0  0  0  0  0
    3.5518  -10.7987   18.5076 C   0  0  0  0  0  0  0  0  0  0  0  0
   -0.6955  -11.6333   15.3976 C   0  0  0  0  0  0  0  0  0  0  0  0
    3.4235   -9.0614   17.0932 C   0  0  0  0  0  0  0  0  0  0  0  0
   -1.5938  -11.1956   13.2824 C   0  0  0  0  0  0  0  0  0  0  0  0
    9.7509   -2.3473   25.4456 N   0  0  0  0  0  0  0  0  0  0  0  0
    0.9589  -11.5799   18.2990 N   0  0  0  0  0  0  0  0  0  0  0  0
    4.7460   -9.1522   17.6288 N   0  0  0  0  0  0  0  0  0  0  0  0
   -1.3912  -12.0388   14.3396 C   0  0  0  0  0  0  0  0  0  0  0  0
    2.6978  -10.1241   17.6544 C   0  0  0  0  0  0  0  0  0  0  0  0
   10.4570   -3.5891   16.7861 C   0  0  0  0  0  0  0  0  0  0  0  0
    8.1454   -7.8101   17.9748 C   0  0  0  0  0  0  0  0  0  0  0  0
    4.8084  -10.2326   18.4143 N   0  0  0  0  0  0  0  0  0  0  0  0
    7.0847   -8.6412   17.9544 C   0  0  0  0  0  0  0  0  0  0  0  0
   11.1002   -4.5505   18.8267 C   0  0  0  0  0  0  0  0  0  0  0  0
   -0.3445   -9.5509   14.4381 C   0  0  0  0  0  0  0  0  0  0  0  0
    6.8855   -6.2345   16.7880 C   0  0  0  0  0  0  0  0  0  0  0  0
    8.0891   -6.5095   17.4510 C   0  0  0  0  0  0  0  0  0  0  0  0
    5.8427   -7.0969   16.7918 C   0  0  0  0  0  0  0  0  0  0  0  0
   11.2334   -3.6099   17.8704 C   0  0  0  0  0  0  0  0  0  0  0  0
    2.9711   -8.1293   16.3036 N   0  0  0  0  0  0  0  0  0  0  0  0
    8.0803   -3.0299   26.8890 N   0  0  0  0  0  0  0  0  0  0  0  0
    9.4093   -4.5225   16.6565 C   0  0  0  0  0  0  0  0  0  0  0  0
    1.7839  -12.2049   19.1906 C   0  0  0  0  0  0  0  0  0  0  0  0
    1.4334  -10.5597   17.4946 C   0  0  0  0  0  0  0  0  0  0  0  0
   -1.0721   -9.9183   13.3223 C   0  0  0  0  0  0  0  0  0  0  0  0
  1 10  4  0
  1 32  4  0
  2  8  4  0
  2 26  1  0
  2 31  4  0
  3  7  1  0
  3 33  1  0
  4  6  4  0
  4 14  4  0
  5 16  1  0
  5 22  4  0
  5 27  4  0
  6 30  4  0
  7 11  4  0
  7 24  4  0
  8 23  4  0
  9 14  4  0
  9 30  4  0
 10 18  4  0
 10 21  4  0
 11 17  4  0
 12 16  4  0
 12 18  4  0
 12 29  1  0
 13 17  4  0
 13 34  4  0
 15 32  4  0
 15 33  4  0
 16 21  4  0
 18 33  4  0
 19 28  4  0
 19 31  4  0
 20 22  4  0
 20 26  4  0
 23 28  4  0
 24 34  4  0
 25 26  4  0
 25 27  4  0
M  END
$$$$

 Created by Python create_sdf_string function

 34 67  0  0  0  0  0  0  0  0999 V2000
    3.0508  -11.8406   19.1247 N   0  0  0  0  0  0  0  0  0  0  0  0
    9.0515   -5.4709   17.5217 C   0  0  0  0  0  0  0  0  0  0  0  0
    0.7125   -9.8296   16.6413 N   0  0  0  0  0  0  0  0  0  0  0  0
   10.3473   -3.4655   26.2950 N   0  0  0  0  0  0  0  0  0  0  0  0
    6.1486   -8.1775   17.3791 C   0  0  0  0  0  0  0  0  0  0  0  0
    9.3690   -4.0331   26.9938 N   0  0  0  0  0  0  0  0  0  0  0  0
    0.0219  -10.3686   15.4304 C   0  0  0  0  0  0  0  0  0  0  0  0
    9.9790   -5.5353   18.5394 C   0  0  0  0  0  0  0  0  0  0  0  0
    8.4481   -2.2031   26.0404 N   0  0  0  0  0  0  0  0  0  0  0  0
    3.3439  -10.9250   18.5643 C   0  0  0  0  0  0  0  0  0  0  0  0
   -0.6465  -11.6353   15.4812 C   0  0  0  0  0  0  0  0  0  0  0  0
    3.4084   -9.1017   17.0055 C   0  0  0  0  0  0  0  0  0  0  0  0
   -1.5500  -11.0827   13.4188 C   0  0  0  0  0  0  0  0  0  0  0  0
    9.7178   -2.3202   25.5592 N   0  0  0  0  0  0  0  0  0  0  0  0
    1.0110  -11.5717   18.2220 S   0  0  0  0  0  0  0  0  0  0  0  0
    4.8316   -9.1523   17.7446 N   0  0  0  0  0  0  0  0  0  0  0  0
   -1.4144  -11.9857   14.3789 C   0  0  0  0  0  0  0  0  0  0  0  0
    2.6231  -10.1001   17.7114 C   0  0  0  0  0  0  0  0  0  0  0  0
   10.3572   -3.5336   16.8976 C   0  0  0  0  0  0  0  0  0  0  0  0
    7.8043   -7.9949   18.3114 C   0  0  0  0  0  0  0  0  0  0  0  0
    5.1373  -10.3645   18.3890 N   0  0  0  0  0  0  0  0  0  0  0  0
    6.9939   -8.6648   17.8541 C   0  0  0  0  0  0  0  0  0  0  0  0
   11.1121   -4.4553   18.7429 C   0  0  0  0  0  0  0  0  0  0  0  0
   -0.4242   -9.7968   14.2891 C   0  0  0  0  0  0  0  0  0  0  0  0
    6.9088   -6.2655   16.7584 C   0  0  0  0  0  0  0  0  0  0  0  0
    8.0540   -6.6976   17.3925 C   0  0  0  0  0  0  0  0  0  0  0  0
    5.8336   -6.9677   16.7075 C   0  0  0  0  0  0  0  0  0  0  0  0
   11.2234   -3.7077   17.5644 C   0  0  0  0  0  0  0  0  0  0  0  0
    2.8767   -8.1121   16.3447 N   0  0  0  0  0  0  0  0  0  0  0  0
    8.1317   -3.1950   26.8398 N   0  0  0  0  0  0  0  0  0  0  0  0
    9.3570   -4.7344   16.5270 C   0  0  0  0  0  0  0  0  0  0  0  0
    1.9111  -12.2862   19.1299 C   0  0  0  0  0  0  0  0  0  0  0  0
    1.4920  -10.5385   17.4619 C   0  0  0  0  0  0  0  0  0  0  0  0
   -1.2268   -9.8820   13.1792 C   0  0  0  0  0  0  0  0  0  0  0  0
  1 10  4  0
  1 24  1  0
  1 32  4  0
  2  5  3  0
  2  8  4  0
  2 10  4  0
  2 26  1  0
  2 31  4  0
  3  5  1  0
  3  6  3  0
  3  7  1  0
  3 21  2  0
  3 33  1  0
  4 12  4  0
  4 14  4  0
  5 10  1  0
  5 16  1  0
  5 22  4  0
  5 27  4  0
  5 28  2  0
  6 30  4  0
  7 11  4  0
  7 15  3  0
  7 16  4  0
  7 24  4  0
  8 21  3  0
  8 23  4  0
  9 10  2  0
  9 14  4  0
  9 15  4  0
  9 30  4  0
 10 12  4  0
 10 18  4  0
 10 21  4  0
 10 26  2  0
 11 14  2  0
 11 17  4  0
 12 16  4  0
 12 18  1  0
 12 29  1  0
 13 17  4  0
 13 24  2  0
 13 26  2  0
 13 34  4  0
 14 21  1  0
 14 23  3  0
 14 24  3  0
 15 21  3  0
 15 22  2  0
 15 32  4  0
 15 33  4  0
 16 18  4  0
 16 21  4  0
 16 28  4  0
 18 22  4  0
 18 33  4  0
 19 28  4  0
 19 31  4  0
 20 22  4  0
 20 26  4  0
 22 27  2  0
 23 28  4  0
 24 26  4  0
 24 34  4  0
 25 26  4  0
 25 27  3  0
 25 33  2  0
M  END
$$$$

 Created by Python create_sdf_string function

 34 38  0  0  0  0  0  0  0  0999 V2000
    3.1141  -11.8755   19.2114 N   0  0  0  0  0  0  0  0  0  0  0  0
    9.1315   -5.5757   17.5460 C   0  0  0  0  0  0  0  0  0  0  0  0
    0.6986   -9.9216   16.5455 N   0  0  0  0  0  0  0  0  0  0  0  0
   10.3167   -3.4386   26.2380 N   0  0  0  0  0  0  0  0  0  0  0  0
    5.8693   -8.3311   17.4553 C   0  0  0  0  0  0  0  0  0  0  0  0
    9.3046   -4.0204   27.0213 N   0  0  0  0  0  0  0  0  0  0  0  0
   -0.0947  -10.3899   15.4604 C   0  0  0  0  0  0  0  0  0  0  0  0
   10.0471   -5.5472   18.6174 C   0  0  0  0  0  0  0  0  0  0  0  0
    8.3926   -2.1701   25.9738 N   0  0  0  0  0  0  0  0  0  0  0  0
    3.5681  -10.8323   18.4650 C   0  0  0  0  0  0  0  0  0  0  0  0
   -0.6549  -11.6565   15.4523 C   0  0  0  0  0  0  0  0  0  0  0  0
    3.4220   -9.0651   17.1106 C   0  0  0  0  0  0  0  0  0  0  0  0
   -1.6507  -11.2171   13.3840 C   0  0  0  0  0  0  0  0  0  0  0  0
    9.7500   -2.3113   25.5659 N   0  0  0  0  0  0  0  0  0  0  0  0
    0.9854  -11.6263   18.2912 N   0  0  0  0  0  0  0  0  0  0  0  0
    4.7342   -9.1841   17.6165 N   0  0  0  0  0  0  0  0  0  0  0  0
   -1.4289  -12.0676   14.4272 C   0  0  0  0  0  0  0  0  0  0  0  0
    2.7153  -10.1590   17.6435 C   0  0  0  0  0  0  0  0  0  0  0  0
   10.3687   -3.6616   16.6439 C   0  0  0  0  0  0  0  0  0  0  0  0
    8.0741   -7.7954   18.0570 C   0  0  0  0  0  0  0  0  0  0  0  0
    4.8092  -10.2956   18.4175 N   0  0  0  0  0  0  0  0  0  0  0  0
    7.0318   -8.6373   18.0437 C   0  0  0  0  0  0  0  0  0  0  0  0
   11.0559   -4.5664   18.7011 C   0  0  0  0  0  0  0  0  0  0  0  0
   -0.3205   -9.5783   14.3980 C   0  0  0  0  0  0  0  0  0  0  0  0
    6.8644   -6.3118   16.7374 C   0  0  0  0  0  0  0  0  0  0  0  0
    8.0463   -6.5366   17.4546 C   0  0  0  0  0  0  0  0  0  0  0  0
    5.8127   -7.1682   16.7362 C   0  0  0  0  0  0  0  0  0  0  0  0
   11.1760   -3.6435   17.7200 C   0  0  0  0  0  0  0  0  0  0  0  0
    2.9408   -8.1724   16.3348 N   0  0  0  0  0  0  0  0  0  0  0  0
    8.1151   -3.2403   26.8685 N   0  0  0  0  0  0  0  0  0  0  0  0
    9.3087   -4.5864   16.5784 C   0  0  0  0  0  0  0  0  0  0  0  0
    1.8518  -12.2791   19.1456 C   0  0  0  0  0  0  0  0  0  0  0  0
    1.4591  -10.5605   17.4673 C   0  0  0  0  0  0  0  0  0  0  0  0
   -1.1072   -9.9657   13.3292 C   0  0  0  0  0  0  0  0  0  0  0  0
  1 10  4  0
  1 32  4  0
  2  8  4  0
  2 26  1  0
  2 31  4  0
  3  7  1  0
  3 33  1  0
  4  6  4  0
  4 14  4  0
  5 16  1  0
  5 22  4  0
  5 27  4  0
  6 30  4  0
  7 11  4  0
  7 24  4  0
  8 23  4  0
  9 14  4  0
  9 30  4  0
 10 18  4  0
 10 21  4  0
 11 17  4  0
 12 16  4  0
 12 18  4  0
 12 29  1  0
 13 17  4  0
 13 34  4  0
 15 32  4  0
 15 33  4  0
 16 21  4  0
 18 33  4  0
 19 28  4  0
 19 31  4  0
 20 22  4  0
 20 26  4  0
 23 28  4  0
 24 34  4  0
 25 26  4  0
 25 27  4  0
M  END
$$$$

 Created by Python create_sdf_string function

 34 42  0  0  0  0  0  0  0  0999 V2000
    3.0204  -11.7990   19.4577 N   0  0  0  0  0  0  0  0  0  0  0  0
    9.2820   -5.5030   17.5204 C   0  0  0  0  0  0  0  0  0  0  0  0
    0.6093   -9.9940   16.6578 N   0  0  0  0  0  0  0  0  0  0  0  0
   10.3012   -3.3554   26.2444 N   0  0  0  0  0  0  0  0  0  0  0  0
    5.7390   -8.2405   17.4944 N   0  0  0  0  0  0  0  0  0  0  0  0
    9.4370   -4.0855   27.1309 N   0  0  0  0  0  0  0  0  0  0  0  0
   -0.0161  -10.4071   15.2924 F   0  0  0  0  0  0  0  0  0  0  0  0
    9.9572   -5.7400   18.5059 C   0  0  0  0  0  0  0  0  0  0  0  0
    8.3807   -2.1320   26.0096 N   0  0  0  0  0  0  0  0  0  0  0  0
   -0.6456  -11.5876   15.5183 C   0  0  0  0  0  0  0  0  0  0  0  0
   -1.5024  -11.2763   13.3356 C   0  0  0  0  0  0  0  0  0  0  0  0
    9.7666   -2.5581   25.6893 N   0  0  0  0  0  0  0  0  0  0  0  0
    4.9706   -9.1138   17.3750 N   0  0  0  0  0  0  0  0  0  0  0  0
   -1.3622  -12.0076   14.4409 C   0  0  0  0  0  0  0  0  0  0  0  0
   10.1215   -3.8051   16.6994 C   0  0  0  0  0  0  0  0  0  0  0  0
    7.7993   -7.6401   18.2481 C   0  0  0  0  0  0  0  0  0  0  0  0
    6.9255   -8.6633   18.0472 C   0  0  0  0  0  0  0  0  0  0  0  0
   11.0673   -4.6801   18.5572 C   0  0  0  0  0  0  0  0  0  0  0  0
   -0.3574   -9.5901   14.3980 C   0  0  0  0  0  0  0  0  0  0  0  0
    7.0195   -6.0751   16.6437 C   0  0  0  0  0  0  0  0  0  0  0  0
    8.0691   -6.5150   17.4389 C   0  0  0  0  0  0  0  0  0  0  0  0
    5.6983   -7.1421   16.6222 C   0  0  0  0  0  0  0  0  0  0  0  0
   11.1989   -3.6213   17.8048 C   0  0  0  0  0  0  0  0  0  0  0  0
    2.9473   -8.2263   16.3251 N   0  0  0  0  0  0  0  0  0  0  0  0
    8.2709   -3.1340   26.7641 N   0  0  0  0  0  0  0  0  0  0  0  0
    9.4363   -4.5645   16.6531 C   0  0  0  0  0  0  0  0  0  0  0  0
    1.8583  -11.9960   19.1571 C   0  0  0  0  0  0  0  0  0  0  0  0
    1.5299  -10.4580   17.4495 C   0  0  0  0  0  0  0  0  0  0  0  0
   -1.1556  -10.0917   13.4754 C   0  0  0  0  0  0  0  0  0  0  0  0
    3.4919  -10.7788   18.7549 He  0  0  0  0  0  0  0  0  0  0  0  0
    3.4844   -9.1130   17.0312 He  0  0  0  0  0  0  0  0  0  0  0  0
    0.9133  -11.5816   18.2037 He  0  0  0  0  0  0  0  0  0  0  0  0
    2.6867  -10.1567   17.6310 He  0  0  0  0  0  0  0  0  0  0  0  0
    4.6989  -10.3296   18.5385 He  0  0  0  0  0  0  0  0  0  0  0  0
  1 27  4  0
  2  5  2  0
  2  8  4  0
  2 21  1  0
  2 25  1  0
  2 26  4  0
  3  7  1  0
  3 28  1  0
  4  6  4  0
  4 12  4  0
  4 28  1  0
  5 13  1  0
  5 17  4  0
  5 21  3  0
  5 22  4  0
  5 28  1  0
  5 29  2  0
  6 25  4  0
  7 10  4  0
  7 12  2  0
  8 10  3  0
  8 13  3  0
  8 27  1  0
  9 12  4  0
  9 25  4  0
 10 14  4  0
 10 18  3  0
 11 14  4  0
 11 29  4  0
 14 21  3  0
 15 23  4  0
 15 26  4  0
 16 17  4  0
 16 18  3  0
 16 23  2  0
 17 19  1  0
 18 19  2  0
 18 23  4  0
 19 29  4  0
 20 21  4  0
 20 22  4  0
 25 26  2  0
M  END
$$$$

 Created by Python create_sdf_string function

 34 38  0  0  0  0  0  0  0  0999 V2000
    3.0090  -11.7364   19.3761 N   0  0  0  0  0  0  0  0  0  0  0  0
    9.1032   -5.6113   17.5102 C   0  0  0  0  0  0  0  0  0  0  0  0
    0.6866   -9.9283   16.5233 N   0  0  0  0  0  0  0  0  0  0  0  0
   10.3475   -3.4510   26.2668 N   0  0  0  0  0  0  0  0  0  0  0  0
    5.8101   -8.3103   17.4653 C   0  0  0  0  0  0  0  0  0  0  0  0
    9.3517   -4.0039   27.0964 N   0  0  0  0  0  0  0  0  0  0  0  0
   -0.1175  -10.4101   15.4627 C   0  0  0  0  0  0  0  0  0  0  0  0
   10.0919   -5.6499   18.5522 C   0  0  0  0  0  0  0  0  0  0  0  0
    8.4189   -2.2030   25.9628 N   0  0  0  0  0  0  0  0  0  0  0  0
    3.5167  -10.7844   18.5710 C   0  0  0  0  0  0  0  0  0  0  0  0
   -0.6467  -11.6667   15.4454 C   0  0  0  0  0  0  0  0  0  0  0  0
    3.4396   -9.0922   17.0859 C   0  0  0  0  0  0  0  0  0  0  0  0
   -1.6204  -11.2848   13.3712 C   0  0  0  0  0  0  0  0  0  0  0  0
    9.7671   -2.3731   25.5677 N   0  0  0  0  0  0  0  0  0  0  0  0
    0.9457  -11.5320   18.2720 N   0  0  0  0  0  0  0  0  0  0  0  0
    4.6951   -9.1704   17.6502 N   0  0  0  0  0  0  0  0  0  0  0  0
   -1.3884  -12.1120   14.4174 C   0  0  0  0  0  0  0  0  0  0  0  0
    2.6838  -10.1385   17.6563 C   0  0  0  0  0  0  0  0  0  0  0  0
   10.3086   -3.6545   16.6925 C   0  0  0  0  0  0  0  0  0  0  0  0
    7.9650   -7.7331   18.1616 C   0  0  0  0  0  0  0  0  0  0  0  0
    4.7519  -10.2373   18.5123 N   0  0  0  0  0  0  0  0  0  0  0  0
    6.9254   -8.5472   18.1622 C   0  0  0  0  0  0  0  0  0  0  0  0
   11.0866   -4.6855   18.6714 C   0  0  0  0  0  0  0  0  0  0  0  0
   -0.3507   -9.6072   14.4156 C   0  0  0  0  0  0  0  0  0  0  0  0
    6.8388   -6.3509   16.6575 C   0  0  0  0  0  0  0  0  0  0  0  0
    8.0016   -6.5328   17.4431 C   0  0  0  0  0  0  0  0  0  0  0  0
    5.8151   -7.2092   16.6814 C   0  0  0  0  0  0  0  0  0  0  0  0
   11.1654   -3.6952   17.7503 C   0  0  0  0  0  0  0  0  0  0  0  0
    3.0372   -8.3094   16.2400 N   0  0  0  0  0  0  0  0  0  0  0  0
    8.1712   -3.2382   26.8983 N   0  0  0  0  0  0  0  0  0  0  0  0
    9.2712   -4.5851   16.5813 C   0  0  0  0  0  0  0  0  0  0  0  0
    1.7292  -12.0895   19.2127 C   0  0  0  0  0  0  0  0  0  0  0  0
    1.4277  -10.5317   17.4560 C   0  0  0  0  0  0  0  0  0  0  0  0
   -1.1056  -10.0325   13.3413 C   0  0  0  0  0  0  0  0  0  0  0  0
  1 10  4  0
  1 32  4  0
  2  8  4  0
  2 26  1  0
  2 31  4  0
  3  7  1  0
  3 33  1  0
  4  6  4  0
  4 14  4  0
  5 16  1  0
  5 22  4  0
  5 27  4  0
  6 30  4  0
  7 11  4  0
  7 24  4  0
  8 23  4  0
  9 14  4  0
  9 30  4  0
 10 18  4  0
 10 21  4  0
 11 17  4  0
 12 16  4  0
 12 18  4  0
 12 29  2  0
 13 17  4  0
 13 34  4  0
 15 32  4  0
 15 33  4  0
 16 21  4  0
 18 33  4  0
 19 28  4  0
 19 31  4  0
 20 22  4  0
 20 26  4  0
 23 28  4  0
 24 34  4  0
 25 26  4  0
 25 27  4  0
M  END
$$$$

 Created by Python create_sdf_string function

 34 60  0  0  0  0  0  0  0  0999 V2000
    2.9900  -11.6492   19.5117 N   0  0  0  0  0  0  0  0  0  0  0  0
    8.8864   -5.5247   17.6081 C   0  0  0  0  0  0  0  0  0  0  0  0
    0.5737  -10.0060   16.5019 N   0  0  0  0  0  0  0  0  0  0  0  0
   10.5509   -3.3560   26.1893 N   0  0  0  0  0  0  0  0  0  0  0  0
    6.0395   -8.5874   17.6631 C   0  0  0  0  0  0  0  0  0  0  0  0
    9.3009   -3.9457   27.2012 N   0  0  0  0  0  0  0  0  0  0  0  0
   -0.0630  -10.4237   15.4608 C   0  0  0  0  0  0  0  0  0  0  0  0
   10.0939   -5.7714   18.6174 C   0  0  0  0  0  0  0  0  0  0  0  0
    8.3561   -2.2521   25.7997 N   0  0  0  0  0  0  0  0  0  0  0  0
    3.4298  -10.7757   18.4327 C   0  0  0  0  0  0  0  0  0  0  0  0
   -0.6735  -11.7819   15.2168 C   0  0  0  0  0  0  0  0  0  0  0  0
    3.3065   -8.8440   17.2532 C   0  0  0  0  0  0  0  0  0  0  0  0
   -1.7806  -11.2689   13.3985 C   0  0  0  0  0  0  0  0  0  0  0  0
    9.8811   -2.3982   25.5414 N   0  0  0  0  0  0  0  0  0  0  0  0
    1.1367  -11.4626   18.1015 N   0  0  0  0  0  0  0  0  0  0  0  0
    4.6365   -9.1867   17.8218 N   0  0  0  0  0  0  0  0  0  0  0  0
   -1.2622  -12.1965   14.5378 C   0  0  0  0  0  0  0  0  0  0  0  0
    2.5791   -9.9173   17.6621 C   0  0  0  0  0  0  0  0  0  0  0  0
   10.2260   -3.7499   16.6903 C   0  0  0  0  0  0  0  0  0  0  0  0
    7.9777   -7.7911   18.1755 C   0  0  0  0  0  0  0  0  0  0  0  0
    4.7226  -10.4411   18.4964 N   0  0  0  0  0  0  0  0  0  0  0  0
    6.9284   -8.5816   18.2894 C   0  0  0  0  0  0  0  0  0  0  0  0
   11.0672   -4.7056   18.6742 C   0  0  0  0  0  0  0  0  0  0  0  0
   -0.2475   -9.6220   14.4470 C   0  0  0  0  0  0  0  0  0  0  0  0
    6.9381   -6.4873   16.7495 C   0  0  0  0  0  0  0  0  0  0  0  0
    7.9585   -6.4898   17.4418 C   0  0  0  0  0  0  0  0  0  0  0  0
    5.9410   -7.2557   16.4019 C   0  0  0  0  0  0  0  0  0  0  0  0
   11.2599   -3.5700   17.6447 C   0  0  0  0  0  0  0  0  0  0  0  0
    3.1016   -8.2034   16.2904 N   0  0  0  0  0  0  0  0  0  0  0  0
    8.2277   -3.2425   26.6846 N   0  0  0  0  0  0  0  0  0  0  0  0
    9.2787   -4.5984   16.7256 C   0  0  0  0  0  0  0  0  0  0  0  0
    1.7317  -12.1592   19.0999 C   0  0  0  0  0  0  0  0  0  0  0  0
    1.3207  -10.4798   17.3918 C   0  0  0  0  0  0  0  0  0  0  0  0
   -1.0627  -10.1249   13.2209 C   0  0  0  0  0  0  0  0  0  0  0  0
  1  2  4  0
  1 10  4  0
  1 32  4  0
  2  8  4  0
  2 14  3  0
  2 15  2  0
  2 26  1  0
  2 31  4  0
  3  4  3  0
  3  6  2  0
  3  7  1  0
  3 21  2  0
  3 33  1  0
  4  5  3  0
  4  6  4  0
  4 13  1  0
  4 14  4  0
  5 16  1  0
  5 22  4  0
  5 27  4  0
  5 31  4  0
  6  9  3  0
  6 10  4  0
  6 30  4  0
  7 11  4  0
  7 24  4  0
  7 32  1  0
  8 23  4  0
  9 10  4  0
  9 14  4  0
  9 28  4  0
  9 30  4  0
 10 18  4  0
 10 24  2  0
 11 17  4  0
 12 18  4  0
 12 25  2  0
 12 29  2  0
 13 17  4  0
 13 34  4  0
 15 26  2  0
 15 32  4  0
 15 33  4  0
 16 21  4  0
 16 26  1  0
 17 22  1  0
 18 33  4  0
 19 28  4  0
 19 31  4  0
 20 22  4  0
 20 26  4  0
 22 31  4  0
 23 28  4  0
 24 27  1  0
 24 31  2  0
 24 34  4  0
 25 26  4  0
 25 27  4  0
 27 31  2  0
 28 32  3  0
M  END
$$$$

 Created by Python create_sdf_string function

 34 38  0  0  0  0  0  0  0  0999 V2000
    2.9619  -11.7564   19.3124 N   0  0  0  0  0  0  0  0  0  0  0  0
    9.0916   -5.6276   17.5570 C   0  0  0  0  0  0  0  0  0  0  0  0
    0.6169   -9.9415   16.5228 N   0  0  0  0  0  0  0  0  0  0  0  0
   10.4254   -3.3843   26.2881 N   0  0  0  0  0  0  0  0  0  0  0  0
    5.8311   -8.3911   17.5473 C   0  0  0  0  0  0  0  0  0  0  0  0
    9.3711   -3.9272   27.1068 N   0  0  0  0  0  0  0  0  0  0  0  0
   -0.1113  -10.4600   15.4286 C   0  0  0  0  0  0  0  0  0  0  0  0
   10.0799   -5.6338   18.5989 C   0  0  0  0  0  0  0  0  0  0  0  0
    8.4454   -2.2659   25.7556 N   0  0  0  0  0  0  0  0  0  0  0  0
    3.4377  -10.7261   18.5700 C   0  0  0  0  0  0  0  0  0  0  0  0
   -0.6338  -11.7236   15.4133 C   0  0  0  0  0  0  0  0  0  0  0  0
    3.3986   -9.0527   17.1121 C   0  0  0  0  0  0  0  0  0  0  0  0
   -1.6509  -11.3423   13.3463 C   0  0  0  0  0  0  0  0  0  0  0  0
    9.8584   -2.3583   25.4755 N   0  0  0  0  0  0  0  0  0  0  0  0
    0.9386  -11.5532   18.1924 N   0  0  0  0  0  0  0  0  0  0  0  0
    4.6865   -9.2103   17.7144 N   0  0  0  0  0  0  0  0  0  0  0  0
   -1.4037  -12.1693   14.3942 C   0  0  0  0  0  0  0  0  0  0  0  0
    2.6252  -10.0719   17.6486 C   0  0  0  0  0  0  0  0  0  0  0  0
   10.2579   -3.6592   16.6983 C   0  0  0  0  0  0  0  0  0  0  0  0
    7.9823   -7.7464   18.2646 C   0  0  0  0  0  0  0  0  0  0  0  0
    4.6953  -10.2332   18.5712 N   0  0  0  0  0  0  0  0  0  0  0  0
    6.9485   -8.6062   18.2790 C   0  0  0  0  0  0  0  0  0  0  0  0
   11.1037   -4.6746   18.6548 C   0  0  0  0  0  0  0  0  0  0  0  0
   -0.3296   -9.6763   14.3600 C   0  0  0  0  0  0  0  0  0  0  0  0
    6.8975   -6.5101   16.6322 C   0  0  0  0  0  0  0  0  0  0  0  0
    8.0191   -6.6095   17.4842 C   0  0  0  0  0  0  0  0  0  0  0  0
    5.8719   -7.3400   16.6565 C   0  0  0  0  0  0  0  0  0  0  0  0
   11.1716   -3.7185   17.7034 C   0  0  0  0  0  0  0  0  0  0  0  0
    3.0183   -8.1548   16.4162 N   0  0  0  0  0  0  0  0  0  0  0  0
    8.1701   -3.2605   26.7432 N   0  0  0  0  0  0  0  0  0  0  0  0
    9.2071   -4.5801   16.6467 C   0  0  0  0  0  0  0  0  0  0  0  0
    1.7110  -12.1357   19.1335 C   0  0  0  0  0  0  0  0  0  0  0  0
    1.3933  -10.5171   17.4368 C   0  0  0  0  0  0  0  0  0  0  0  0
   -1.1209  -10.0872   13.3005 C   0  0  0  0  0  0  0  0  0  0  0  0
  1 10  4  0
  1 32  4  0
  2  8  4  0
  2 26  1  0
  2 31  4  0
  3  7  1  0
  3 33  1  0
  4  6  4  0
  4 14  4  0
  5 16  1  0
  5 22  4  0
  5 27  4  0
  6 30  4  0
  7 11  4  0
  7 24  4  0
  8 23  4  0
  9 14  4  0
  9 30  4  0
 10 18  4  0
 10 21  4  0
 11 17  4  0
 12 16  4  0
 12 18  4  0
 12 29  2  0
 13 17  4  0
 13 34  4  0
 15 32  4  0
 15 33  4  0
 16 21  4  0
 18 33  4  0
 19 28  4  0
 19 31  4  0
 20 22  4  0
 20 26  4  0
 23 28  4  0
 24 34  4  0
 25 26  4  0
 25 27  4  0
M  END
$$$$

 Created by Python create_sdf_string function

 34 44  0  0  0  0  0  0  0  0999 V2000
    3.0022  -11.7866   19.2420 N   0  0  0  0  0  0  0  0  0  0  0  0
    9.0233   -5.5073   17.6050 C   0  0  0  0  0  0  0  0  0  0  0  0
    0.5504   -9.8959   16.7044 N   0  0  0  0  0  0  0  0  0  0  0  0
   10.4929   -3.4294   26.3593 N   0  0  0  0  0  0  0  0  0  0  0  0
    9.3446   -4.1387   26.9554 N   0  0  0  0  0  0  0  0  0  0  0  0
    0.0017  -10.3829   15.4152 C   0  0  0  0  0  0  0  0  0  0  0  0
   10.0487   -5.6929   18.5881 C   0  0  0  0  0  0  0  0  0  0  0  0
    8.5265   -2.2098   25.7534 N   0  0  0  0  0  0  0  0  0  0  0  0
    3.4208  -10.7576   18.8254 C   0  0  0  0  0  0  0  0  0  0  0  0
   -0.5187  -11.6445   15.2758 C   0  0  0  0  0  0  0  0  0  0  0  0
    3.4055   -9.1019   17.1262 C   0  0  0  0  0  0  0  0  0  0  0  0
   -1.6291  -11.4147   13.0803 C   0  0  0  0  0  0  0  0  0  0  0  0
    9.8962   -2.5723   25.4551 N   0  0  0  0  0  0  0  0  0  0  0  0
    0.9461  -11.6350   18.3289 N   0  0  0  0  0  0  0  0  0  0  0  0
    4.5546   -9.2299   17.7163 N   0  0  0  0  0  0  0  0  0  0  0  0
   -1.2542  -12.1522   14.3582 C   0  0  0  0  0  0  0  0  0  0  0  0
    2.5677  -10.1294   17.5250 C   0  0  0  0  0  0  0  0  0  0  0  0
   10.1133   -3.5296   16.6781 C   0  0  0  0  0  0  0  0  0  0  0  0
    8.0023   -7.7244   18.3770 C   0  0  0  0  0  0  0  0  0  0  0  0
    4.6155  -10.4092   18.3333 N   0  0  0  0  0  0  0  0  0  0  0  0
    6.8693   -8.5556   18.2715 C   0  0  0  0  0  0  0  0  0  0  0  0
   11.0237   -4.6947   18.5441 C   0  0  0  0  0  0  0  0  0  0  0  0
   -0.3915   -9.5522   14.3859 C   0  0  0  0  0  0  0  0  0  0  0  0
    6.8172   -6.5509   16.8403 C   0  0  0  0  0  0  0  0  0  0  0  0
    5.7564   -7.3282   16.7015 C   0  0  0  0  0  0  0  0  0  0  0  0
   11.1860   -3.7517   17.6922 C   0  0  0  0  0  0  0  0  0  0  0  0
    3.0151   -8.1153   16.2092 N   0  0  0  0  0  0  0  0  0  0  0  0
    8.1077   -3.1793   26.8062 N   0  0  0  0  0  0  0  0  0  0  0  0
    9.2083   -4.4793   16.6565 C   0  0  0  0  0  0  0  0  0  0  0  0
    1.7166  -12.2027   19.1090 C   0  0  0  0  0  0  0  0  0  0  0  0
    1.3874  -10.6522   17.4061 C   0  0  0  0  0  0  0  0  0  0  0  0
    5.8391   -8.4430   17.6768 He  0  0  0  0  0  0  0  0  0  0  0  0
    8.0180   -6.5304   17.5764 He  0  0  0  0  0  0  0  0  0  0  0  0
   -1.2126  -10.2678   13.3126 He  0  0  0  0  0  0  0  0  0  0  0  0
  1  9  4  0
  1 16  1  0
  1 20  4  0
  1 30  4  0
  2  7  4  0
  2 31  2  0
  3  6  1  0
  3 31  1  0
  4 13  4  0
  5 18  2  0
  5 23  2  0
  5 28  4  0
  6 10  4  0
  6 11  3  0
  6 16  3  0
  7 10  2  0
  7 22  4  0
  7 27  2  0
  8  9  3  0
  8 13  4  0
  8 17  1  0
  8 28  4  0
  9 12  2  0
  9 15  2  0
  9 17  4  0
  9 20  4  0
  9 27  1  0
 10 16  4  0
 11 17  4  0
 11 27  3  0
 12 16  4  0
 13 26  2  0
 14 27  1  0
 14 30  4  0
 14 31  4  0
 15 20  4  0
 17 31  4  0
 18 26  4  0
 18 29  3  0
 19 21  4  0
 22 26  4  0
 22 27  4  0
 24 25  4  0
 24 26  3  0
M  END
$$$$

 Created by Python create_sdf_string function

 34 38  0  0  0  0  0  0  0  0999 V2000
    2.9568  -11.8201   19.2953 N   0  0  0  0  0  0  0  0  0  0  0  0
    9.0518   -5.6076   17.5790 C   0  0  0  0  0  0  0  0  0  0  0  0
    0.5744   -9.9717   16.5499 N   0  0  0  0  0  0  0  0  0  0  0  0
   10.4007   -3.5075   26.2972 N   0  0  0  0  0  0  0  0  0  0  0  0
    5.7898   -8.3864   17.6033 C   0  0  0  0  0  0  0  0  0  0  0  0
    9.2899   -4.0448   27.0203 N   0  0  0  0  0  0  0  0  0  0  0  0
   -0.1296  -10.4421   15.4326 C   0  0  0  0  0  0  0  0  0  0  0  0
   10.0630   -5.6518   18.5671 C   0  0  0  0  0  0  0  0  0  0  0  0
    8.5155   -2.2580   25.7522 N   0  0  0  0  0  0  0  0  0  0  0  0
    3.4248  -10.8232   18.5233 C   0  0  0  0  0  0  0  0  0  0  0  0
   -0.5663  -11.7337   15.3492 C   0  0  0  0  0  0  0  0  0  0  0  0
    3.3272   -9.1275   17.1177 C   0  0  0  0  0  0  0  0  0  0  0  0
   -1.5688  -11.3967   13.2532 C   0  0  0  0  0  0  0  0  0  0  0  0
    9.9018   -2.4717   25.4535 N   0  0  0  0  0  0  0  0  0  0  0  0
    0.9035  -11.6509   18.2508 N   0  0  0  0  0  0  0  0  0  0  0  0
    4.6437   -9.2440   17.7363 N   0  0  0  0  0  0  0  0  0  0  0  0
   -1.2599  -12.2179   14.3004 C   0  0  0  0  0  0  0  0  0  0  0  0
    2.5953  -10.1468   17.6378 C   0  0  0  0  0  0  0  0  0  0  0  0
   10.1885   -3.6140   16.7043 C   0  0  0  0  0  0  0  0  0  0  0  0
    7.9225   -7.7538   18.3248 C   0  0  0  0  0  0  0  0  0  0  0  0
    4.6561  -10.2822   18.5470 N   0  0  0  0  0  0  0  0  0  0  0  0
    6.8760   -8.5949   18.3399 C   0  0  0  0  0  0  0  0  0  0  0  0
   11.0842   -4.7022   18.5993 C   0  0  0  0  0  0  0  0  0  0  0  0
   -0.4353   -9.6401   14.3660 C   0  0  0  0  0  0  0  0  0  0  0  0
    6.8151   -6.4735   16.7392 C   0  0  0  0  0  0  0  0  0  0  0  0
    7.9513   -6.5920   17.5452 C   0  0  0  0  0  0  0  0  0  0  0  0
    5.7946   -7.2984   16.7598 C   0  0  0  0  0  0  0  0  0  0  0  0
   11.1316   -3.7060   17.6851 C   0  0  0  0  0  0  0  0  0  0  0  0
    2.9649   -8.2704   16.2744 N   0  0  0  0  0  0  0  0  0  0  0  0
    8.1383   -3.2275   26.7418 N   0  0  0  0  0  0  0  0  0  0  0  0
    9.1379   -4.5388   16.6585 C   0  0  0  0  0  0  0  0  0  0  0  0
    1.7029  -12.2127   19.1626 C   0  0  0  0  0  0  0  0  0  0  0  0
    1.3414  -10.5828   17.4812 C   0  0  0  0  0  0  0  0  0  0  0  0
   -1.1442  -10.1035   13.2831 C   0  0  0  0  0  0  0  0  0  0  0  0
  1 10  4  0
  1 32  4  0
  2  8  4  0
  2 26  1  0
  2 31  4  0
  3  7  1  0
  3 33  1  0
  4  6  4  0
  4 14  4  0
  5 16  1  0
  5 22  4  0
  5 27  4  0
  6 30  4  0
  7 11  4  0
  7 24  4  0
  8 23  4  0
  9 14  4  0
  9 30  4  0
 10 18  4  0
 10 21  4  0
 11 17  4  0
 12 16  4  0
 12 18  4  0
 12 29  1  0
 13 17  4  0
 13 34  4  0
 15 32  4  0
 15 33  4  0
 16 21  4  0
 18 33  4  0
 19 28  4  0
 19 31  4  0
 20 22  4  0
 20 26  4  0
 23 28  4  0
 24 34  4  0
 25 26  4  0
 25 27  4  0
M  END
$$$$

 Created by Python create_sdf_string function

 34 42  0  0  0  0  0  0  0  0999 V2000
    2.8746  -11.9587   19.3133 N   0  0  0  0  0  0  0  0  0  0  0  0
    9.0668   -5.6121   17.4217 C   0  0  0  0  0  0  0  0  0  0  0  0
    0.5846  -10.0791   16.5691 N   0  0  0  0  0  0  0  0  0  0  0  0
   10.3201   -3.5489   26.3709 N   0  0  0  0  0  0  0  0  0  0  0  0
    5.6302   -8.3471   17.7565 C   0  0  0  0  0  0  0  0  0  0  0  0
    9.3582   -4.0403   26.9297 N   0  0  0  0  0  0  0  0  0  0  0  0
   -0.2443  -10.6300   15.4792 C   0  0  0  0  0  0  0  0  0  0  0  0
   10.0623   -5.6197   18.5190 C   0  0  0  0  0  0  0  0  0  0  0  0
    3.4651  -10.8134   18.7603 C   0  0  0  0  0  0  0  0  0  0  0  0
   -0.6321  -11.7786   15.3485 C   0  0  0  0  0  0  0  0  0  0  0  0
    3.0605   -8.8457   17.2531 C   0  0  0  0  0  0  0  0  0  0  0  0
   -1.5412  -11.3800   13.3428 C   0  0  0  0  0  0  0  0  0  0  0  0
    9.8343   -2.6042   25.3630 N   0  0  0  0  0  0  0  0  0  0  0  0
    0.8766  -11.6591   18.3118 N   0  0  0  0  0  0  0  0  0  0  0  0
    4.5727   -9.1433   17.7907 N   0  0  0  0  0  0  0  0  0  0  0  0
   -1.2227  -12.2450   14.3143 C   0  0  0  0  0  0  0  0  0  0  0  0
    2.4551  -10.1223   17.6469 C   0  0  0  0  0  0  0  0  0  0  0  0
   10.1198   -3.4797   16.6053 C   0  0  0  0  0  0  0  0  0  0  0  0
    7.8545   -7.7235   18.3432 C   0  0  0  0  0  0  0  0  0  0  0  0
    4.8109  -10.0590   18.4947 F   0  0  0  0  0  0  0  0  0  0  0  0
    6.8981   -8.7047   18.3631 C   0  0  0  0  0  0  0  0  0  0  0  0
   11.1934   -4.8123   18.5824 C   0  0  0  0  0  0  0  0  0  0  0  0
   -0.4884   -9.6401   14.3624 C   0  0  0  0  0  0  0  0  0  0  0  0
    6.8394   -6.5348   16.6080 C   0  0  0  0  0  0  0  0  0  0  0  0
    7.9610   -6.6087   17.4942 C   0  0  0  0  0  0  0  0  0  0  0  0
    5.8615   -7.3326   16.7910 C   0  0  0  0  0  0  0  0  0  0  0  0
   11.0384   -3.7674   17.7242 C   0  0  0  0  0  0  0  0  0  0  0  0
    2.9239   -8.2246   16.3341 N   0  0  0  0  0  0  0  0  0  0  0  0
    8.1224   -3.0627   26.8376 N   0  0  0  0  0  0  0  0  0  0  0  0
    9.1445   -4.4983   16.7490 O   0  0  0  0  0  0  0  0  0  0  0  0
    1.7009  -12.1583   19.1995 C   0  0  0  0  0  0  0  0  0  0  0  0
    1.2817  -10.5791   17.5742 C   0  0  0  0  0  0  0  0  0  0  0  0
    8.4069   -2.3680   25.7764 He  0  0  0  0  0  0  0  0  0  0  0  0
   -1.2215   -9.9387   13.2697 He  0  0  0  0  0  0  0  0  0  0  0  0
  1  9  4  0
  1 31  4  0
  2  8  4  0
  2 16  2  0
  2 25  1  0
  2 28  3  0
  2 30  4  0
  3  7  1  0
  3 32  1  0
  4  6  4  0
  4 13  4  0
  4 27  1  0
  5 15  4  0
  5 21  4  0
  5 26  4  0
  5 32  1  0
  6 29  4  0
  7 10  4  0
  7 23  4  0
  8 22  4  0
  9 17  4  0
  9 20  4  0
 10 16  4  0
 11 15  4  0
 11 17  4  0
 11 26  1  0
 11 28  1  0
 11 29  2  0
 12 16  4  0
 14 26  2  0
 14 31  4  0
 14 32  4  0
 15 20  4  0
 17 27  1  0
 17 32  4  0
 18 27  4  0
 18 30  4  0
 19 21  4  0
 21 29  1  0
 22 27  4  0
 24 25  4  0
 24 26  4  0
M  END
$$$$

 Created by Python create_sdf_string function

 34 38  0  0  0  0  0  0  0  0999 V2000
    2.9192  -11.8507   19.3527 N   0  0  0  0  0  0  0  0  0  0  0  0
    9.0366   -5.6390   17.5405 C   0  0  0  0  0  0  0  0  0  0  0  0
    0.5377  -10.0499   16.5622 N   0  0  0  0  0  0  0  0  0  0  0  0
   10.3282   -3.5573   26.2578 N   0  0  0  0  0  0  0  0  0  0  0  0
    5.7145   -8.3396   17.6388 C   0  0  0  0  0  0  0  0  0  0  0  0
    9.2649   -3.9985   27.0644 N   0  0  0  0  0  0  0  0  0  0  0  0
   -0.1979  -10.5117   15.4540 C   0  0  0  0  0  0  0  0  0  0  0  0
   10.0725   -5.7187   18.4849 C   0  0  0  0  0  0  0  0  0  0  0  0
    8.4426   -2.3088   25.7294 N   0  0  0  0  0  0  0  0  0  0  0  0
    3.3949  -10.7917   18.6383 C   0  0  0  0  0  0  0  0  0  0  0  0
   -0.6298  -11.8044   15.3655 C   0  0  0  0  0  0  0  0  0  0  0  0
    3.2529   -9.0812   17.2261 C   0  0  0  0  0  0  0  0  0  0  0  0
   -1.5842  -11.3873   13.2680 C   0  0  0  0  0  0  0  0  0  0  0  0
    9.8162   -2.5518   25.3475 N   0  0  0  0  0  0  0  0  0  0  0  0
    0.8665  -11.6592   18.2906 N   0  0  0  0  0  0  0  0  0  0  0  0
    4.5601   -9.1593   17.8008 N   0  0  0  0  0  0  0  0  0  0  0  0
   -1.3072  -12.2490   14.2722 C   0  0  0  0  0  0  0  0  0  0  0  0
    2.5352  -10.1315   17.7443 C   0  0  0  0  0  0  0  0  0  0  0  0
   10.1144   -3.6083   16.7203 C   0  0  0  0  0  0  0  0  0  0  0  0
    7.8887   -7.7674   18.3101 C   0  0  0  0  0  0  0  0  0  0  0  0
    4.6385  -10.2005   18.6315 N   0  0  0  0  0  0  0  0  0  0  0  0
    6.8184   -8.5512   18.3736 C   0  0  0  0  0  0  0  0  0  0  0  0
   11.0883   -4.7588   18.5498 C   0  0  0  0  0  0  0  0  0  0  0  0
   -0.4933   -9.6585   14.4470 C   0  0  0  0  0  0  0  0  0  0  0  0
    6.8158   -6.5177   16.6749 C   0  0  0  0  0  0  0  0  0  0  0  0
    7.9463   -6.6208   17.5030 C   0  0  0  0  0  0  0  0  0  0  0  0
    5.7601   -7.3076   16.7561 C   0  0  0  0  0  0  0  0  0  0  0  0
   11.0831   -3.7280   17.6775 C   0  0  0  0  0  0  0  0  0  0  0  0
    2.8155   -8.2031   16.4061 N   0  0  0  0  0  0  0  0  0  0  0  0
    8.1061   -3.1599   26.8200 N   0  0  0  0  0  0  0  0  0  0  0  0
    9.1089   -4.5539   16.6593 C   0  0  0  0  0  0  0  0  0  0  0  0
    1.6723  -12.2266   19.1890 C   0  0  0  0  0  0  0  0  0  0  0  0
    1.3053  -10.6013   17.5172 C   0  0  0  0  0  0  0  0  0  0  0  0
   -1.1968  -10.0806   13.3336 C   0  0  0  0  0  0  0  0  0  0  0  0
  1 10  4  0
  1 32  4  0
  2  8  4  0
  2 26  1  0
  2 31  4  0
  3  7  1  0
  3 33  1  0
  4  6  4  0
  4 14  4  0
  5 16  1  0
  5 22  4  0
  5 27  4  0
  6 30  4  0
  7 11  4  0
  7 24  4  0
  8 23  4  0
  9 14  4  0
  9 30  4  0
 10 18  4  0
 10 21  4  0
 11 17  4  0
 12 16  4  0
 12 18  4  0
 12 29  1  0
 13 17  4  0
 13 34  4  0
 15 32  4  0
 15 33  4  0
 16 21  4  0
 18 33  4  0
 19 28  4  0
 19 31  4  0
 20 22  4  0
 20 26  4  0
 23 28  4  0
 24 34  4  0
 25 26  4  0
 25 27  4  0
M  END
$$$$

 Created by Python create_sdf_string function

 34 46  0  0  0  0  0  0  0  0999 V2000
    3.0157  -11.8031   19.3443 N   0  0  0  0  0  0  0  0  0  0  0  0
    9.0087   -5.7016   17.4639 C   0  0  0  0  0  0  0  0  0  0  0  0
    0.5849   -9.7626   16.7391 N   0  0  0  0  0  0  0  0  0  0  0  0
   10.4561   -3.4178   26.4037 N   0  0  0  0  0  0  0  0  0  0  0  0
    9.3740   -3.9414   27.0292 N   0  0  0  0  0  0  0  0  0  0  0  0
   -0.1492  -10.4421   15.5500 C   0  0  0  0  0  0  0  0  0  0  0  0
   10.1096   -5.5501   18.5004 C   0  0  0  0  0  0  0  0  0  0  0  0
    8.4220   -2.2794   25.5831 N   0  0  0  0  0  0  0  0  0  0  0  0
    3.5243  -10.7392   18.5949 C   0  0  0  0  0  0  0  0  0  0  0  0
   -0.5213  -11.8047   15.3369 C   0  0  0  0  0  0  0  0  0  0  0  0
    3.3295   -9.3130   17.2276 C   0  0  0  0  0  0  0  0  0  0  0  0
   -1.5299  -11.3008   13.1704 C   0  0  0  0  0  0  0  0  0  0  0  0
    9.8741   -2.5208   25.3146 N   0  0  0  0  0  0  0  0  0  0  0  0
    0.9351  -11.5819   18.3282 N   0  0  0  0  0  0  0  0  0  0  0  0
    4.5104   -9.1363   17.9458 N   0  0  0  0  0  0  0  0  0  0  0  0
   -1.2314  -12.2542   14.2262 C   0  0  0  0  0  0  0  0  0  0  0  0
   10.0507   -3.6754   16.7478 C   0  0  0  0  0  0  0  0  0  0  0  0
    7.9992   -7.7789   18.4764 C   0  0  0  0  0  0  0  0  0  0  0  0
    4.6061  -10.1407   18.4632 N   0  0  0  0  0  0  0  0  0  0  0  0
    6.8518   -8.3507   18.1524 C   0  0  0  0  0  0  0  0  0  0  0  0
   11.2032   -4.5719   18.6073 C   0  0  0  0  0  0  0  0  0  0  0  0
   -0.4597   -9.6444   14.5012 C   0  0  0  0  0  0  0  0  0  0  0  0
    6.8117   -6.5954   16.6786 C   0  0  0  0  0  0  0  0  0  0  0  0
    7.8922   -6.5916   17.5111 C   0  0  0  0  0  0  0  0  0  0  0  0
    5.8211   -7.2506   16.8129 C   0  0  0  0  0  0  0  0  0  0  0  0
   11.0430   -3.5625   17.5900 C   0  0  0  0  0  0  0  0  0  0  0  0
    8.1509   -3.1078   26.7768 N   0  0  0  0  0  0  0  0  0  0  0  0
    9.0190   -4.6885   16.6749 C   0  0  0  0  0  0  0  0  0  0  0  0
    1.5373  -12.1779   19.2422 C   0  0  0  0  0  0  0  0  0  0  0  0
    1.3698  -10.5239   17.5317 C   0  0  0  0  0  0  0  0  0  0  0  0
   -1.1840  -10.0380   13.3826 C   0  0  0  0  0  0  0  0  0  0  0  0
    5.7637   -8.2558   17.5901 He  0  0  0  0  0  0  0  0  0  0  0  0
    2.4852  -10.2044   17.9072 He  0  0  0  0  0  0  0  0  0  0  0  0
    2.9474   -8.1950   16.5597 He  0  0  0  0  0  0  0  0  0  0  0  0
  1  9  4  0
  1 29  4  0
  1 31  2  0
  2  7  4  0
  2 24  1  0
  2 28  4  0
  3  6  1  0
  3 30  1  0
  4  5  4  0
  4 13  1  0
  4 27  1  0
  5 25  3  0
  5 27  4  0
  6 10  4  0
  6 22  4  0
  6 25  2  0
  7 21  4  0
  8 13  4  0
  8 17  2  0
  8 27  4  0
  9 19  4  0
  9 22  4  0
  9 26  4  0
  9 30  2  0
 10 16  4  0
 11 15  4  0
 12 16  4  0
 12 19  3  0
 12 31  4  0
 14 29  4  0
 14 30  4  0
 15 19  4  0
 15 26  2  0
 16 30  1  0
 17 26  4  0
 18 20  4  0
 18 24  4  0
 19 21  2  0
 19 29  4  0
 21 26  4  0
 22 27  1  0
 22 31  4  0
 23 24  4  0
 23 25  4  0
 25 27  1  0
 25 30  2  0
M  END
$$$$

 Created by Python create_sdf_string function

 34 38  0  0  0  0  0  0  0  0999 V2000
    2.9054  -11.8360   19.3834 N   0  0  0  0  0  0  0  0  0  0  0  0
    9.0409   -5.6283   17.5357 C   0  0  0  0  0  0  0  0  0  0  0  0
    0.5231   -9.9408   16.6555 N   0  0  0  0  0  0  0  0  0  0  0  0
   10.4071   -3.4174   26.3073 N   0  0  0  0  0  0  0  0  0  0  0  0
    5.7197   -8.3303   17.6326 C   0  0  0  0  0  0  0  0  0  0  0  0
    9.3351   -3.8914   27.0997 N   0  0  0  0  0  0  0  0  0  0  0  0
   -0.1731  -10.4450   15.5142 C   0  0  0  0  0  0  0  0  0  0  0  0
   10.0994   -5.6163   18.5134 C   0  0  0  0  0  0  0  0  0  0  0  0
    8.4583   -2.2923   25.5983 N   0  0  0  0  0  0  0  0  0  0  0  0
    3.3925  -10.8084   18.6312 C   0  0  0  0  0  0  0  0  0  0  0  0
   -0.5506  -11.7699   15.3699 C   0  0  0  0  0  0  0  0  0  0  0  0
    3.2819   -9.1047   17.2317 C   0  0  0  0  0  0  0  0  0  0  0  0
   -1.5149  -11.3502   13.2566 C   0  0  0  0  0  0  0  0  0  0  0  0
    9.8562   -2.4897   25.3284 N   0  0  0  0  0  0  0  0  0  0  0  0
    0.8402  -11.5869   18.3279 N   0  0  0  0  0  0  0  0  0  0  0  0
    4.5673   -9.1866   17.7902 N   0  0  0  0  0  0  0  0  0  0  0  0
   -1.2019  -12.2324   14.2670 C   0  0  0  0  0  0  0  0  0  0  0  0
    2.5698  -10.1376   17.7296 C   0  0  0  0  0  0  0  0  0  0  0  0
   10.0869   -3.6114   16.6650 C   0  0  0  0  0  0  0  0  0  0  0  0
    7.9023   -7.7376   18.3164 C   0  0  0  0  0  0  0  0  0  0  0  0
    4.6287  -10.2210   18.6175 N   0  0  0  0  0  0  0  0  0  0  0  0
    6.7922   -8.5253   18.3716 C   0  0  0  0  0  0  0  0  0  0  0  0
   11.0730   -4.6189   18.5543 C   0  0  0  0  0  0  0  0  0  0  0  0
   -0.4940   -9.6042   14.5015 C   0  0  0  0  0  0  0  0  0  0  0  0
    6.7889   -6.4910   16.6801 C   0  0  0  0  0  0  0  0  0  0  0  0
    7.9397   -6.6091   17.5131 C   0  0  0  0  0  0  0  0  0  0  0  0
    5.7497   -7.2887   16.7539 C   0  0  0  0  0  0  0  0  0  0  0  0
   11.0381   -3.6218   17.6329 C   0  0  0  0  0  0  0  0  0  0  0  0
    2.8365   -8.2142   16.4194 N   0  0  0  0  0  0  0  0  0  0  0  0
    8.1507   -3.1510   26.7273 N   0  0  0  0  0  0  0  0  0  0  0  0
    9.0866   -4.5964   16.6047 C   0  0  0  0  0  0  0  0  0  0  0  0
    1.6429  -12.1894   19.2207 C   0  0  0  0  0  0  0  0  0  0  0  0
    1.3198  -10.5653   17.5562 C   0  0  0  0  0  0  0  0  0  0  0  0
   -1.1534  -10.0290   13.3823 C   0  0  0  0  0  0  0  0  0  0  0  0
  1 10  4  0
  1 32  4  0
  2  8  4  0
  2 26  1  0
  2 31  4  0
  3  7  1  0
  3 33  1  0
  4  6  4  0
  4 14  4  0
  5 16  1  0
  5 22  4  0
  5 27  4  0
  6 30  4  0
  7 11  4  0
  7 24  4  0
  8 23  4  0
  9 14  4  0
  9 30  4  0
 10 18  4  0
 10 21  4  0
 11 17  4  0
 12 16  4  0
 12 18  4  0
 12 29  1  0
 13 17  4  0
 13 34  4  0
 15 32  4  0
 15 33  4  0
 16 21  4  0
 18 33  4  0
 19 28  4  0
 19 31  4  0
 20 22  4  0
 20 26  4  0
 23 28  4  0
 24 34  4  0
 25 26  4  0
 25 27  4  0
M  END
$$$$

 Created by Python create_sdf_string function

 34 55  0  0  0  0  0  0  0  0999 V2000
    2.7416  -11.8214   19.4064 N   0  0  0  0  0  0  0  0  0  0  0  0
    9.0307   -5.6087   17.5507 C   0  0  0  0  0  0  0  0  0  0  0  0
    0.5408   -9.9517   16.6763 N   0  0  0  0  0  0  0  0  0  0  0  0
   10.2133   -3.3826   26.3868 N   0  0  0  0  0  0  0  0  0  0  0  0
    5.7567   -8.3095   17.6721 C   0  0  0  0  0  0  0  0  0  0  0  0
    9.3736   -3.8009   27.0663 N   0  0  0  0  0  0  0  0  0  0  0  0
   -0.0820  -10.6061   15.5566 C   0  0  0  0  0  0  0  0  0  0  0  0
   10.2175   -5.6214   18.6370 C   0  0  0  0  0  0  0  0  0  0  0  0
    8.5029   -2.2733   25.5361 N   0  0  0  0  0  0  0  0  0  0  0  0
    3.4651  -10.7508   18.6548 C   0  0  0  0  0  0  0  0  0  0  0  0
   -0.4680  -11.6742   15.4282 C   0  0  0  0  0  0  0  0  0  0  0  0
    3.2967   -9.0792   17.3491 C   0  0  0  0  0  0  0  0  0  0  0  0
   -1.4510  -11.3427   13.3661 C   0  0  0  0  0  0  0  0  0  0  0  0
    9.7862   -2.4171   25.4011 N   0  0  0  0  0  0  0  0  0  0  0  0
    1.0153  -11.6040   18.4016 N   0  0  0  0  0  0  0  0  0  0  0  0
    4.5593   -9.1592   17.9205 N   0  0  0  0  0  0  0  0  0  0  0  0
   -1.2289  -12.1907   14.3315 C   0  0  0  0  0  0  0  0  0  0  0  0
    2.4031  -10.1733   17.7354 C   0  0  0  0  0  0  0  0  0  0  0  0
   10.0813   -3.5173   16.6249 C   0  0  0  0  0  0  0  0  0  0  0  0
    7.8577   -7.7030   18.4089 C   0  0  0  0  0  0  0  0  0  0  0  0
    4.7326  -10.1430   18.7515 Cl  0  0  0  0  0  0  0  0  0  0  0  0
    6.7867   -8.6197   18.2851 C   0  0  0  0  0  0  0  0  0  0  0  0
   11.1290   -4.5663   18.6329 C   0  0  0  0  0  0  0  0  0  0  0  0
   -0.4737   -9.5482   14.5436 C   0  0  0  0  0  0  0  0  0  0  0  0
    7.9767   -6.6311   17.5934 C   0  0  0  0  0  0  0  0  0  0  0  0
   11.0203   -3.5145   17.7128 C   0  0  0  0  0  0  0  0  0  0  0  0
    2.8094   -8.1407   16.3606 N   0  0  0  0  0  0  0  0  0  0  0  0
    8.1071   -3.0821   26.6263 N   0  0  0  0  0  0  0  0  0  0  0  0
    9.1233   -4.6633   16.7123 C   0  0  0  0  0  0  0  0  0  0  0  0
    1.6889  -12.1617   19.3748 C   0  0  0  0  0  0  0  0  0  0  0  0
    1.3104  -10.5686   17.5379 C   0  0  0  0  0  0  0  0  0  0  0  0
   -1.2027  -10.0404   13.3864 C   0  0  0  0  0  0  0  0  0  0  0  0
    6.7639   -6.5865   16.6531 He  0  0  0  0  0  0  0  0  0  0  0  0
    5.6702   -7.3093   16.8639 He  0  0  0  0  0  0  0  0  0  0  0  0
  1 10  2  0
  1 15  3  0
  1 27  4  0
  1 30  4  0
  2  8  2  0
  2 18  1  0
  2 25  1  0
  2 29  4  0
  2 31  1  0
  3  7  1  0
  3 31  1  0
  4  6  4  0
  4 14  4  0
  4 16  1  0
  4 18  2  0
  4 20  2  0
  5  8  2  0
  5 13  1  0
  5 22  4  0
  6 19  4  0
  6 28  4  0
  7 11  4  0
  7 24  4  0
  8 13  4  0
  8 21  3  0
  8 23  4  0
  9 14  4  0
  9 28  4  0
 10 21  4  0
 10 22  3  0
 11 17  4  0
 11 24  1  0
 11 26  4  0
 12 16  4  0
 12 18  4  0
 12 26  4  0
 12 27  1  0
 13 17  4  0
 13 19  4  0
 13 32  4  0
 15 30  4  0
 15 31  4  0
 16 30  2  0
 18 22  1  0
 19 26  4  0
 19 29  4  0
 20 22  2  0
 20 25  4  0
 20 29  2  0
 22 23  3  0
 23 26  4  0
 24 32  4  0
 25 30  1  0
 26 31  4  0
 29 32  3  0
M  END
$$$$

 Created by Python create_sdf_string function

 34 38  0  0  0  0  0  0  0  0999 V2000
    2.8798  -11.8322   19.4704 N   0  0  0  0  0  0  0  0  0  0  0  0
    9.0464   -5.6382   17.5726 C   0  0  0  0  0  0  0  0  0  0  0  0
    0.5533   -9.9856   16.6741 N   0  0  0  0  0  0  0  0  0  0  0  0
   10.3163   -3.3516   26.3179 N   0  0  0  0  0  0  0  0  0  0  0  0
    5.6970   -8.3402   17.6897 C   0  0  0  0  0  0  0  0  0  0  0  0
    9.2422   -3.7849   27.0934 N   0  0  0  0  0  0  0  0  0  0  0  0
   -0.1525  -10.4646   15.5440 C   0  0  0  0  0  0  0  0  0  0  0  0
   10.0883   -5.6068   18.5649 C   0  0  0  0  0  0  0  0  0  0  0  0
    8.4398   -2.2511   25.5465 N   0  0  0  0  0  0  0  0  0  0  0  0
    3.3670  -10.7897   18.7236 C   0  0  0  0  0  0  0  0  0  0  0  0
   -0.5379  -11.7467   15.4223 C   0  0  0  0  0  0  0  0  0  0  0  0
    3.2915   -9.1059   17.2754 C   0  0  0  0  0  0  0  0  0  0  0  0
   -1.5155  -11.3556   13.3427 C   0  0  0  0  0  0  0  0  0  0  0  0
    9.8329   -2.4168   25.3637 N   0  0  0  0  0  0  0  0  0  0  0  0
    0.8537  -11.6259   18.3707 N   0  0  0  0  0  0  0  0  0  0  0  0
    4.5658   -9.1699   17.8550 N   0  0  0  0  0  0  0  0  0  0  0  0
   -1.2056  -12.2237   14.3405 C   0  0  0  0  0  0  0  0  0  0  0  0
    2.5556  -10.1418   17.8042 C   0  0  0  0  0  0  0  0  0  0  0  0
   10.0847   -3.5994   16.6917 C   0  0  0  0  0  0  0  0  0  0  0  0
    7.9075   -7.7495   18.3393 C   0  0  0  0  0  0  0  0  0  0  0  0
    4.6153  -10.2186   18.7178 N   0  0  0  0  0  0  0  0  0  0  0  0
    6.8065   -8.5467   18.4106 C   0  0  0  0  0  0  0  0  0  0  0  0
   11.0415   -4.5998   18.6205 C   0  0  0  0  0  0  0  0  0  0  0  0
   -0.4728   -9.6253   14.5443 C   0  0  0  0  0  0  0  0  0  0  0  0
    6.7728   -6.5141   16.7473 C   0  0  0  0  0  0  0  0  0  0  0  0
    7.9353   -6.6145   17.5451 C   0  0  0  0  0  0  0  0  0  0  0  0
    5.7230   -7.3108   16.8127 C   0  0  0  0  0  0  0  0  0  0  0  0
   11.0161   -3.6093   17.7048 C   0  0  0  0  0  0  0  0  0  0  0  0
    2.8172   -8.2177   16.4179 N   0  0  0  0  0  0  0  0  0  0  0  0
    8.0708   -3.1113   26.6287 N   0  0  0  0  0  0  0  0  0  0  0  0
    9.1047   -4.6176   16.6445 C   0  0  0  0  0  0  0  0  0  0  0  0
    1.6348  -12.2002   19.2984 C   0  0  0  0  0  0  0  0  0  0  0  0
    1.3260  -10.5917   17.6009 C   0  0  0  0  0  0  0  0  0  0  0  0
   -1.1613  -10.0462   13.4178 C   0  0  0  0  0  0  0  0  0  0  0  0
  1 10  4  0
  1 32  4  0
  2  8  4  0
  2 26  1  0
  2 31  4  0
  3  7  1  0
  3 33  1  0
  4  6  4  0
  4 14  4  0
  5 16  1  0
  5 22  4  0
  5 27  4  0
  6 30  4  0
  7 11  4  0
  7 24  4  0
  8 23  4  0
  9 14  4  0
  9 30  4  0
 10 18  4  0
 10 21  4  0
 11 17  4  0
 12 16  4  0
 12 18  4  0
 12 29  1  0
 13 17  4  0
 13 34  4  0
 15 32  4  0
 15 33  4  0
 16 21  4  0
 18 33  4  0
 19 28  4  0
 19 31  4  0
 20 22  4  0
 20 26  4  0
 23 28  4  0
 24 34  4  0
 25 26  4  0
 25 27  4  0
M  END
$$$$

 Created by Python create_sdf_string function

 34 45  0  0  0  0  0  0  0  0999 V2000
    2.9835  -11.7178   19.3946 N   0  0  0  0  0  0  0  0  0  0  0  0
    9.1016   -5.4831   17.6374 Cl  0  0  0  0  0  0  0  0  0  0  0  0
    0.6195   -9.9223   16.6307 N   0  0  0  0  0  0  0  0  0  0  0  0
   10.3047   -3.3359   26.2187 N   0  0  0  0  0  0  0  0  0  0  0  0
    5.6239   -8.0885   17.6977 C   0  0  0  0  0  0  0  0  0  0  0  0
    9.2743   -3.7703   27.1538 N   0  0  0  0  0  0  0  0  0  0  0  0
   -0.2870  -10.4478   15.6294 C   0  0  0  0  0  0  0  0  0  0  0  0
   10.2177   -5.5582   18.5624 C   0  0  0  0  0  0  0  0  0  0  0  0
    8.4314   -2.1578   25.5420 C   0  0  0  0  0  0  0  0  0  0  0  0
    3.3283  -10.8142   18.8017 C   0  0  0  0  0  0  0  0  0  0  0  0
   -0.6051  -11.7456   15.4408 C   0  0  0  0  0  0  0  0  0  0  0  0
    3.2369   -9.1797   17.2769 C   0  0  0  0  0  0  0  0  0  0  0  0
   -1.5235  -11.3512   13.4658 C   0  0  0  0  0  0  0  0  0  0  0  0
    9.7782   -2.3713   25.2365 Cl  0  0  0  0  0  0  0  0  0  0  0  0
    0.9161  -11.5272   18.4358 N   0  0  0  0  0  0  0  0  0  0  0  0
   -1.2324  -12.3492   14.3132 C   0  0  0  0  0  0  0  0  0  0  0  0
    2.4236  -10.1541   17.9058 C   0  0  0  0  0  0  0  0  0  0  0  0
    9.9518   -3.5855   16.6014 C   0  0  0  0  0  0  0  0  0  0  0  0
    7.7708   -7.7698   18.4019 C   0  0  0  0  0  0  0  0  0  0  0  0
    4.5928  -10.3296   18.6628 N   0  0  0  0  0  0  0  0  0  0  0  0
    6.9138   -8.6574   18.4532 C   0  0  0  0  0  0  0  0  0  0  0  0
   11.0949   -4.5954   18.5154 C   0  0  0  0  0  0  0  0  0  0  0  0
   -0.3838   -9.5414   14.5384 C   0  0  0  0  0  0  0  0  0  0  0  0
    6.7214   -6.6647   16.6187 C   0  0  0  0  0  0  0  0  0  0  0  0
    7.9166   -6.5282   17.6194 C   0  0  0  0  0  0  0  0  0  0  0  0
    5.6712   -7.3705   16.7935 C   0  0  0  0  0  0  0  0  0  0  0  0
   11.1098   -3.5058   17.5622 C   0  0  0  0  0  0  0  0  0  0  0  0
    2.7187   -8.2330   16.3957 N   0  0  0  0  0  0  0  0  0  0  0  0
    7.8560   -3.0502   26.7323 N   0  0  0  0  0  0  0  0  0  0  0  0
    9.1488   -4.6595   16.6004 C   0  0  0  0  0  0  0  0  0  0  0  0
    1.5617  -12.1600   19.3011 C   0  0  0  0  0  0  0  0  0  0  0  0
    1.2291  -10.5366   17.6087 C   0  0  0  0  0  0  0  0  0  0  0  0
   -1.0436  -10.0528   13.5245 C   0  0  0  0  0  0  0  0  0  0  0  0
    4.6147   -9.0149   17.8586 He  0  0  0  0  0  0  0  0  0  0  0  0
  1 10  4  0
  1 31  2  0
  2  8  4  0
  2 25  1  0
  2 30  4  0
  3  7  1  0
  3 15  2  0
  3 32  1  0
  4  6  4  0
  4 14  4  0
  5  9  2  0
  5 21  4  0
  5 26  3  0
  6 29  4  0
  7 11  4  0
  7 23  3  0
  8 22  4  0
  8 23  4  0
  8 24  1  0
  9 14  4  0
  9 29  4  0
 10 17  4  0
 10 20  4  0
 11 16  4  0
 12 17  4  0
 12 28  1  0
 12 29  2  0
 13 16  4  0
 13 33  4  0
 14 19  4  0
 15 31  4  0
 15 32  4  0
 16 20  1  0
 17 32  1  0
 18 27  4  0
 18 30  4  0
 19 21  4  0
 19 25  4  0
 21 28  4  0
 22 23  3  0
 22 27  4  0
 24 25  4  0
 24 26  4  0
 24 31  2  0
 26 27  2  0
M  END
$$$$

 Created by Python create_sdf_string function

 34 38  0  0  0  0  0  0  0  0999 V2000
    2.8755  -11.7893   19.4712 N   0  0  0  0  0  0  0  0  0  0  0  0
    9.0568   -5.6027   17.5480 C   0  0  0  0  0  0  0  0  0  0  0  0
    0.4791   -9.9585   16.7110 N   0  0  0  0  0  0  0  0  0  0  0  0
   10.2969   -3.3692   26.2518 N   0  0  0  0  0  0  0  0  0  0  0  0
    5.7049   -8.3489   17.6905 C   0  0  0  0  0  0  0  0  0  0  0  0
    9.2322   -3.7527   27.1156 N   0  0  0  0  0  0  0  0  0  0  0  0
   -0.1933  -10.4574   15.5820 C   0  0  0  0  0  0  0  0  0  0  0  0
   10.0951   -5.5593   18.5167 C   0  0  0  0  0  0  0  0  0  0  0  0
    8.3609   -2.1577   25.5720 C   0  0  0  0  0  0  0  0  0  0  0  0
    3.3378  -10.7958   18.7222 C   0  0  0  0  0  0  0  0  0  0  0  0
   -0.6140  -11.7676   15.4921 C   0  0  0  0  0  0  0  0  0  0  0  0
    3.2241   -9.1073   17.2873 C   0  0  0  0  0  0  0  0  0  0  0  0
   -1.5093  -11.3720   13.3709 C   0  0  0  0  0  0  0  0  0  0  0  0
    9.7556   -2.3957   25.2775 N   0  0  0  0  0  0  0  0  0  0  0  0
    0.8071  -11.5769   18.4012 N   0  0  0  0  0  0  0  0  0  0  0  0
    4.5264   -9.1796   17.8633 C   0  0  0  0  0  0  0  0  0  0  0  0
   -1.2529  -12.2412   14.3911 C   0  0  0  0  0  0  0  0  0  0  0  0
    2.5297  -10.1451   17.8208 C   0  0  0  0  0  0  0  0  0  0  0  0
   10.0653   -3.6013   16.5947 C   0  0  0  0  0  0  0  0  0  0  0  0
    7.8608   -7.6997   18.3876 C   0  0  0  0  0  0  0  0  0  0  0  0
    4.5723  -10.2279   18.7384 N   0  0  0  0  0  0  0  0  0  0  0  0
    6.7926   -8.5304   18.4773 C   0  0  0  0  0  0  0  0  0  0  0  0
   11.0723   -4.5751   18.5143 C   0  0  0  0  0  0  0  0  0  0  0  0
   -0.4614   -9.6338   14.5457 C   0  0  0  0  0  0  0  0  0  0  0  0
    6.7611   -6.5175   16.7143 C   0  0  0  0  0  0  0  0  0  0  0  0
    7.9185   -6.6066   17.5458 C   0  0  0  0  0  0  0  0  0  0  0  0
    5.7016   -7.3158   16.7792 C   0  0  0  0  0  0  0  0  0  0  0  0
   11.0411   -3.5908   17.5683 C   0  0  0  0  0  0  0  0  0  0  0  0
    2.7432   -8.2662   16.3918 N   0  0  0  0  0  0  0  0  0  0  0  0
    7.9838   -3.0392   26.6912 N   0  0  0  0  0  0  0  0  0  0  0  0
    9.0710   -4.6034   16.6066 C   0  0  0  0  0  0  0  0  0  0  0  0
    1.5996  -12.1598   19.3144 C   0  0  0  0  0  0  0  0  0  0  0  0
    1.2653  -10.5686   17.6271 C   0  0  0  0  0  0  0  0  0  0  0  0
   -1.1158  -10.0747   13.4486 C   0  0  0  0  0  0  0  0  0  0  0  0
  1 10  4  0
  1 32  4  0
  2  8  4  0
  2 26  1  0
  2 31  4  0
  3  7  1  0
  3 33  1  0
  4  6  4  0
  4 14  4  0
  5 16  1  0
  5 22  4  0
  5 27  4  0
  6 30  4  0
  7 11  4  0
  7 24  4  0
  8 23  4  0
  9 14  4  0
  9 30  4  0
 10 18  4  0
 10 21  4  0
 11 17  4  0
 12 16  4  0
 12 18  4  0
 12 29  1  0
 13 17  4  0
 13 34  4  0
 15 32  4  0
 15 33  4  0
 16 21  4  0
 18 33  4  0
 19 28  4  0
 19 31  4  0
 20 22  4  0
 20 26  4  0
 23 28  4  0
 24 34  4  0
 25 26  4  0
 25 27  4  0
M  END
$$$$

 Created by Python create_sdf_string function

 34 44  0  0  0  0  0  0  0  0999 V2000
    2.8861  -11.7917   19.4564 N   0  0  0  0  0  0  0  0  0  0  0  0
    9.0463   -5.6570   17.5198 C   0  0  0  0  0  0  0  0  0  0  0  0
    5.5472   -8.3220   17.7759 C   0  0  0  0  0  0  0  0  0  0  0  0
    9.1814   -3.7985   27.0977 N   0  0  0  0  0  0  0  0  0  0  0  0
   10.0723   -5.6403   18.4575 C   0  0  0  0  0  0  0  0  0  0  0  0
    8.3993   -2.0568   25.5974 C   0  0  0  0  0  0  0  0  0  0  0  0
    3.2947  -10.8954   18.7646 C   0  0  0  0  0  0  0  0  0  0  0  0
   -0.4466  -11.8342   15.5189 C   0  0  0  0  0  0  0  0  0  0  0  0
    3.3022   -9.0525   17.2305 B   0  0  0  0  0  0  0  0  0  0  0  0
    9.7451   -2.4135   25.2753 N   0  0  0  0  0  0  0  0  0  0  0  0
    0.8828  -11.4709   18.4703 N   0  0  0  0  0  0  0  0  0  0  0  0
    4.6157   -9.1016   17.8611 C   0  0  0  0  0  0  0  0  0  0  0  0
   -1.3448  -12.2437   14.4267 F   0  0  0  0  0  0  0  0  0  0  0  0
    2.5918  -10.0583   17.7961 C   0  0  0  0  0  0  0  0  0  0  0  0
   10.0885   -3.6248   16.6238 C   0  0  0  0  0  0  0  0  0  0  0  0
    7.8801   -7.5249   18.4306 C   0  0  0  0  0  0  0  0  0  0  0  0
    4.5903  -10.1888   18.6013 N   0  0  0  0  0  0  0  0  0  0  0  0
    6.8315   -8.4865   18.3972 C   0  0  0  0  0  0  0  0  0  0  0  0
   11.1028   -4.6712   18.4449 C   0  0  0  0  0  0  0  0  0  0  0  0
   -0.3356   -9.5548   14.4877 C   0  0  0  0  0  0  0  0  0  0  0  0
    6.7457   -6.5175   16.6866 C   0  0  0  0  0  0  0  0  0  0  0  0
    7.9476   -6.6645   17.5263 C   0  0  0  0  0  0  0  0  0  0  0  0
    5.7463   -7.2838   16.7397 C   0  0  0  0  0  0  0  0  0  0  0  0
   11.0293   -3.5491   17.6182 C   0  0  0  0  0  0  0  0  0  0  0  0
    2.7488   -8.4024   16.3640 N   0  0  0  0  0  0  0  0  0  0  0  0
    7.9348   -3.0498   26.6175 N   0  0  0  0  0  0  0  0  0  0  0  0
    9.0461   -4.7019   16.5389 C   0  0  0  0  0  0  0  0  0  0  0  0
    1.5709  -12.1639   19.2662 P   0  0  0  0  0  0  0  0  0  0  0  0
    1.2407  -10.4617   17.5819 C   0  0  0  0  0  0  0  0  0  0  0  0
   -1.1422  -10.1571   13.4471 C   0  0  0  0  0  0  0  0  0  0  0  0
    0.3744   -9.8882   16.7994 He  0  0  0  0  0  0  0  0  0  0  0  0
   10.2805   -3.3747   26.1884 He  0  0  0  0  0  0  0  0  0  0  0  0
   -0.2406  -10.3295   15.5464 He  0  0  0  0  0  0  0  0  0  0  0  0
   -1.6335  -11.4283   13.4275 He  0  0  0  0  0  0  0  0  0  0  0  0
  1  7  4  0
  1 28  4  0
  2  9  3  0
  2 18  2  0
  2 22  1  0
  2 27  4  0
  2 30  2  0
  3  4  1  0
  3 12  1  0
  3 18  4  0
  3 23  4  0
  4 14  2  0
  4 26  4  0
  5 19  4  0
  6  7  3  0
  6  8  1  0
  6 10  4  0
  6 26  4  0
  6 29  1  0
  7 14  4  0
  7 17  4  0
  8 13  4  0
  9 11  3  0
  9 12  4  0
  9 14  4  0
  9 24  4  0
  9 25  1  0
 11 16  2  0
 11 28  4  0
 11 29  4  0
 12 17  4  0
 14 29  4  0
 15 24  4  0
 15 27  4  0
 16 18  4  0
 16 22  4  0
 18 27  3  0
 18 28  3  0
 19 24  4  0
 20 30  4  0
 21 22  4  0
 21 23  4  0
 24 28  4  0
 25 26  4  0
M  END
$$$$

 Created by Python create_sdf_string function

 34 38  0  0  0  0  0  0  0  0999 V2000
    2.8878  -11.8040   19.4302 N   0  0  0  0  0  0  0  0  0  0  0  0
    9.0311   -5.6221   17.4898 C   0  0  0  0  0  0  0  0  0  0  0  0
    0.3784   -9.8841   16.7494 N   0  0  0  0  0  0  0  0  0  0  0  0
   10.2411   -3.3832   26.1951 N   0  0  0  0  0  0  0  0  0  0  0  0
    5.6894   -8.3058   17.6805 C   0  0  0  0  0  0  0  0  0  0  0  0
    9.1618   -3.7913   27.0553 N   0  0  0  0  0  0  0  0  0  0  0  0
   -0.2080  -10.4384   15.5671 C   0  0  0  0  0  0  0  0  0  0  0  0
   10.1020   -5.6314   18.4615 C   0  0  0  0  0  0  0  0  0  0  0  0
    8.3869   -2.0913   25.6064 C   0  0  0  0  0  0  0  0  0  0  0  0
    3.3400  -10.7672   18.6859 C   0  0  0  0  0  0  0  0  0  0  0  0
   -0.5890  -11.7628   15.4940 C   0  0  0  0  0  0  0  0  0  0  0  0
    3.2413   -9.1012   17.2322 C   0  0  0  0  0  0  0  0  0  0  0  0
   -1.5952  -11.4158   13.4192 C   0  0  0  0  0  0  0  0  0  0  0  0
    9.7542   -2.3730   25.2713 N   0  0  0  0  0  0  0  0  0  0  0  0
    0.8011  -11.5172   18.4370 N   0  0  0  0  0  0  0  0  0  0  0  0
    4.5450   -9.1673   17.8381 C   0  0  0  0  0  0  0  0  0  0  0  0
   -1.3003  -12.2513   14.4485 C   0  0  0  0  0  0  0  0  0  0  0  0
    2.5069  -10.1079   17.7976 C   0  0  0  0  0  0  0  0  0  0  0  0
   10.0796   -3.6217   16.5962 C   0  0  0  0  0  0  0  0  0  0  0  0
    7.8515   -7.6475   18.3841 C   0  0  0  0  0  0  0  0  0  0  0  0
    4.5702  -10.2015   18.6845 N   0  0  0  0  0  0  0  0  0  0  0  0
    6.7761   -8.4642   18.4781 C   0  0  0  0  0  0  0  0  0  0  0  0
   11.0685   -4.6507   18.4849 C   0  0  0  0  0  0  0  0  0  0  0  0
   -0.4528   -9.6400   14.4952 C   0  0  0  0  0  0  0  0  0  0  0  0
    6.7630   -6.5045   16.6692 C   0  0  0  0  0  0  0  0  0  0  0  0
    7.9047   -6.5796   17.5139 C   0  0  0  0  0  0  0  0  0  0  0  0
    5.7076   -7.2896   16.7606 C   0  0  0  0  0  0  0  0  0  0  0  0
   11.0327   -3.6411   17.5808 C   0  0  0  0  0  0  0  0  0  0  0  0
    2.7647   -8.3340   16.3233 N   0  0  0  0  0  0  0  0  0  0  0  0
    7.9601   -3.0196   26.6310 N   0  0  0  0  0  0  0  0  0  0  0  0
    9.0900   -4.6166   16.5472 C   0  0  0  0  0  0  0  0  0  0  0  0
    1.6153  -12.1448   19.3083 C   0  0  0  0  0  0  0  0  0  0  0  0
    1.2458  -10.5018   17.6547 C   0  0  0  0  0  0  0  0  0  0  0  0
   -1.1553  -10.1228   13.4093 C   0  0  0  0  0  0  0  0  0  0  0  0
  1 10  4  0
  1 32  4  0
  2  8  4  0
  2 26  1  0
  2 31  4  0
  3  7  1  0
  3 33  1  0
  4  6  4  0
  4 14  4  0
  5 16  1  0
  5 22  4  0
  5 27  4  0
  6 30  4  0
  7 11  4  0
  7 24  4  0
  8 23  4  0
  9 14  4  0
  9 30  4  0
 10 18  4  0
 10 21  4  0
 11 17  4  0
 12 16  4  0
 12 18  4  0
 12 29  1  0
 13 17  4  0
 13 34  4  0
 15 32  4  0
 15 33  4  0
 16 21  4  0
 18 33  4  0
 19 28  4  0
 19 31  4  0
 20 22  4  0
 20 26  4  0
 23 28  4  0
 24 34  4  0
 25 26  4  0
 25 27  4  0
M  END
$$$$

 Created by Python create_sdf_string function

 34 51  0  0  0  0  0  0  0  0999 V2000
    2.8760  -11.8875   19.4593 N   0  0  0  0  0  0  0  0  0  0  0  0
    9.1728   -5.6273   17.4812 C   0  0  0  0  0  0  0  0  0  0  0  0
    0.4450   -9.8667   16.8776 N   0  0  0  0  0  0  0  0  0  0  0  0
   10.1400   -3.4877   26.1749 N   0  0  0  0  0  0  0  0  0  0  0  0
    5.6512   -8.2234   17.6110 C   0  0  0  0  0  0  0  0  0  0  0  0
    9.1675   -3.6522   27.0129 N   0  0  0  0  0  0  0  0  0  0  0  0
   -0.1060  -10.2483   15.5969 C   0  0  0  0  0  0  0  0  0  0  0  0
   10.0218   -5.5446   18.3843 C   0  0  0  0  0  0  0  0  0  0  0  0
    8.4092   -2.0740   25.6784 C   0  0  0  0  0  0  0  0  0  0  0  0
    3.4001  -10.8258   18.6021 C   0  0  0  0  0  0  0  0  0  0  0  0
   -0.5513  -11.6224   15.4098 C   0  0  0  0  0  0  0  0  0  0  0  0
    3.2593   -9.1356   17.1949 C   0  0  0  0  0  0  0  0  0  0  0  0
   -1.5213  -11.4010   13.3678 C   0  0  0  0  0  0  0  0  0  0  0  0
    9.8284   -2.3787   25.2197 N   0  0  0  0  0  0  0  0  0  0  0  0
    0.8151  -11.4934   18.4779 N   0  0  0  0  0  0  0  0  0  0  0  0
    4.4340   -9.1198   17.9998 C   0  0  0  0  0  0  0  0  0  0  0  0
   -1.3113  -12.2064   14.4790 C   0  0  0  0  0  0  0  0  0  0  0  0
    2.6163  -10.0040   17.8064 C   0  0  0  0  0  0  0  0  0  0  0  0
   10.1446   -3.7255   16.5237 C   0  0  0  0  0  0  0  0  0  0  0  0
    7.8370   -7.6740   18.3215 C   0  0  0  0  0  0  0  0  0  0  0  0
    4.5786  -10.1221   18.5715 N   0  0  0  0  0  0  0  0  0  0  0  0
    6.8051   -8.5664   18.4918 C   0  0  0  0  0  0  0  0  0  0  0  0
   11.0424   -4.6944   18.4267 C   0  0  0  0  0  0  0  0  0  0  0  0
   -0.4438   -9.6338   14.5943 C   0  0  0  0  0  0  0  0  0  0  0  0
    7.8371   -6.6071   17.4946 C   0  0  0  0  0  0  0  0  0  0  0  0
    5.5806   -7.1741   16.9538 P   0  0  0  0  0  0  0  0  0  0  0  0
   11.0328   -3.6786   17.5719 C   0  0  0  0  0  0  0  0  0  0  0  0
    2.7540   -8.2378   16.4011 N   0  0  0  0  0  0  0  0  0  0  0  0
    7.9651   -3.0452   26.5887 N   0  0  0  0  0  0  0  0  0  0  0  0
    9.1460   -4.5398   16.5428 C   0  0  0  0  0  0  0  0  0  0  0  0
    1.5660  -12.1855   19.2853 C   0  0  0  0  0  0  0  0  0  0  0  0
    1.1779  -10.6530   17.5513 C   0  0  0  0  0  0  0  0  0  0  0  0
   -1.0803  -10.1712   13.3629 C   0  0  0  0  0  0  0  0  0  0  0  0
    6.8386   -6.4534   16.5981 He  0  0  0  0  0  0  0  0  0  0  0  0
  1 10  3  0
  1 13  2  0
  1 31  4  0
  2  8  4  0
  2 14  2  0
  2 25  1  0
  2 30  4  0
  3  7  1  0
  3 32  1  0
  4  6  4  0
  4 14  4  0
  5 16  1  0
  5 22  4  0
  5 26  4  0
  6 19  3  0
  6 29  4  0
  7 11  4  0
  7 24  4  0
  8 23  4  0
  9 14  4  0
  9 15  3  0
  9 29  4  0
 10 18  4  0
 10 21  4  0
 10 26  2  0
 12 16  4  0
 12 18  4  0
 12 28  1  0
 13 17  4  0
 13 24  4  0
 13 33  4  0
 15 22  1  0
 15 31  4  0
 15 32  4  0
 16 18  1  0
 16 21  4  0
 18 20  3  0
 18 29  4  0
 18 32  4  0
 19 27  4  0
 19 30  4  0
 19 33  4  0
 20 22  4  0
 20 25  4  0
 21 24  3  0
 23 27  2  0
 23 31  1  0
 24 28  1  0
 24 33  4  0
 26 29  3  0
 26 33  4  0
M  END
$$$$

 Created by Python create_sdf_string function

 34 38  0  0  0  0  0  0  0  0999 V2000
    2.8678  -11.8639   19.4175 N   0  0  0  0  0  0  0  0  0  0  0  0
    9.0118   -5.6197   17.4574 C   0  0  0  0  0  0  0  0  0  0  0  0
    0.4443   -9.9074   16.7402 N   0  0  0  0  0  0  0  0  0  0  0  0
   10.1934   -3.4502   26.1526 N   0  0  0  0  0  0  0  0  0  0  0  0
    5.6567   -8.2649   17.7089 C   0  0  0  0  0  0  0  0  0  0  0  0
    9.1308   -3.7453   27.0217 N   0  0  0  0  0  0  0  0  0  0  0  0
   -0.2009  -10.4097   15.5917 C   0  0  0  0  0  0  0  0  0  0  0  0
   10.0192   -5.6457   18.4286 C   0  0  0  0  0  0  0  0  0  0  0  0
    8.4035   -2.0517   25.6084 C   0  0  0  0  0  0  0  0  0  0  0  0
    3.3405  -10.8027   18.6712 C   0  0  0  0  0  0  0  0  0  0  0  0
   -0.6207  -11.7042   15.5315 C   0  0  0  0  0  0  0  0  0  0  0  0
    3.1968   -9.1012   17.2493 C   0  0  0  0  0  0  0  0  0  0  0  0
   -1.5016  -11.3741   13.3888 C   0  0  0  0  0  0  0  0  0  0  0  0
    9.7773   -2.3778   25.2457 N   0  0  0  0  0  0  0  0  0  0  0  0
    0.7875  -11.5673   18.4328 N   0  0  0  0  0  0  0  0  0  0  0  0
    4.5089   -9.1396   17.8374 C   0  0  0  0  0  0  0  0  0  0  0  0
   -1.2748  -12.2027   14.4548 C   0  0  0  0  0  0  0  0  0  0  0  0
    2.4958  -10.1477   17.7925 C   0  0  0  0  0  0  0  0  0  0  0  0
   10.1392   -3.6718   16.5269 C   0  0  0  0  0  0  0  0  0  0  0  0
    7.8607   -7.6824   18.3171 C   0  0  0  0  0  0  0  0  0  0  0  0
    4.5678  -10.1993   18.6748 N   0  0  0  0  0  0  0  0  0  0  0  0
    6.7735   -8.4887   18.4451 C   0  0  0  0  0  0  0  0  0  0  0  0
   11.0183   -4.6791   18.4628 C   0  0  0  0  0  0  0  0  0  0  0  0
   -0.4455   -9.6072   14.5160 C   0  0  0  0  0  0  0  0  0  0  0  0
    6.7207   -6.4415   16.7022 C   0  0  0  0  0  0  0  0  0  0  0  0
    7.8896   -6.5738   17.4849 C   0  0  0  0  0  0  0  0  0  0  0  0
    5.6557   -7.2236   16.8242 C   0  0  0  0  0  0  0  0  0  0  0  0
   11.0503   -3.7145   17.5157 C   0  0  0  0  0  0  0  0  0  0  0  0
    2.7383   -8.2663   16.3719 N   0  0  0  0  0  0  0  0  0  0  0  0
    7.9600   -2.9801   26.6237 N   0  0  0  0  0  0  0  0  0  0  0  0
    9.1109   -4.6217   16.4933 C   0  0  0  0  0  0  0  0  0  0  0  0
    1.6060  -12.1895   19.3019 C   0  0  0  0  0  0  0  0  0  0  0  0
    1.2441  -10.5459   17.6464 C   0  0  0  0  0  0  0  0  0  0  0  0
   -1.0913  -10.0892   13.4061 C   0  0  0  0  0  0  0  0  0  0  0  0
  1 10  4  0
  1 32  4  0
  2  8  4  0
  2 26  1  0
  2 31  4  0
  3  7  1  0
  3 33  1  0
  4  6  4  0
  4 14  4  0
  5 16  1  0
  5 22  4  0
  5 27  4  0
  6 30  4  0
  7 11  4  0
  7 24  4  0
  8 23  4  0
  9 14  4  0
  9 30  4  0
 10 18  4  0
 10 21  4  0
 11 17  4  0
 12 16  4  0
 12 18  4  0
 12 29  1  0
 13 17  4  0
 13 34  4  0
 15 32  4  0
 15 33  4  0
 16 21  4  0
 18 33  4  0
 19 28  4  0
 19 31  4  0
 20 22  4  0
 20 26  4  0
 23 28  4  0
 24 34  4  0
 25 26  4  0
 25 27  4  0
M  END
$$$$

 Created by Python create_sdf_string function

 34 52  0  0  0  0  0  0  0  0999 V2000
    2.8670  -11.8830   19.3835 N   0  0  0  0  0  0  0  0  0  0  0  0
    9.0954   -5.6179   17.4896 C   0  0  0  0  0  0  0  0  0  0  0  0
    0.5287   -9.9569   16.6863 N   0  0  0  0  0  0  0  0  0  0  0  0
   10.2486   -3.5523   26.2845 N   0  0  0  0  0  0  0  0  0  0  0  0
    5.6676   -8.2453   17.7532 C   0  0  0  0  0  0  0  0  0  0  0  0
    9.0887   -3.7342   27.1469 N   0  0  0  0  0  0  0  0  0  0  0  0
   -0.1944  -10.4488   15.6197 C   0  0  0  0  0  0  0  0  0  0  0  0
    9.9955   -5.7042   18.4240 C   0  0  0  0  0  0  0  0  0  0  0  0
    8.4528   -1.9362   25.6855 C   0  0  0  0  0  0  0  0  0  0  0  0
    3.3870  -10.8195   18.6317 C   0  0  0  0  0  0  0  0  0  0  0  0
   -0.6200  -11.7128   15.5814 C   0  0  0  0  0  0  0  0  0  0  0  0
    3.1933   -9.0795   17.1855 C   0  0  0  0  0  0  0  0  0  0  0  0
   -1.5238  -11.4089   13.4357 C   0  0  0  0  0  0  0  0  0  0  0  0
    9.6953   -2.3485   25.2396 N   0  0  0  0  0  0  0  0  0  0  0  0
    0.8826  -11.6169   18.3684 N   0  0  0  0  0  0  0  0  0  0  0  0
    4.6194   -9.1035   17.8273 C   0  0  0  0  0  0  0  0  0  0  0  0
   -1.2377  -12.1637   14.3999 C   0  0  0  0  0  0  0  0  0  0  0  0
    2.4550  -10.1583   17.7173 C   0  0  0  0  0  0  0  0  0  0  0  0
   10.1633   -3.6452   16.5104 C   0  0  0  0  0  0  0  0  0  0  0  0
    7.7686   -7.7359   18.3021 C   0  0  0  0  0  0  0  0  0  0  0  0
    4.5450  -10.0246   18.6924 N   0  0  0  0  0  0  0  0  0  0  0  0
    6.6540   -8.5812   18.4165 C   0  0  0  0  0  0  0  0  0  0  0  0
   10.9771   -4.6924   18.3795 C   0  0  0  0  0  0  0  0  0  0  0  0
   -0.4782   -9.5966   14.4446 C   0  0  0  0  0  0  0  0  0  0  0  0
    6.6504   -6.4882   16.6821 C   0  0  0  0  0  0  0  0  0  0  0  0
    7.8775   -6.5096   17.4263 C   0  0  0  0  0  0  0  0  0  0  0  0
    5.5666   -7.2918   16.7742 C   0  0  0  0  0  0  0  0  0  0  0  0
   11.0625   -3.6935   17.5083 C   0  0  0  0  0  0  0  0  0  0  0  0
    2.7652   -8.2438   16.2744 N   0  0  0  0  0  0  0  0  0  0  0  0
    7.9859   -3.0164   26.7380 N   0  0  0  0  0  0  0  0  0  0  0  0
    9.1835   -4.5717   16.5142 C   0  0  0  0  0  0  0  0  0  0  0  0
    1.7435  -12.1796   19.3587 C   0  0  0  0  0  0  0  0  0  0  0  0
    1.1390  -10.5391   17.6656 C   0  0  0  0  0  0  0  0  0  0  0  0
   -1.0120  -10.0809   13.4457 C   0  0  0  0  0  0  0  0  0  0  0  0
  1 10  4  0
  1 17  4  0
  1 26  4  0
  1 32  4  0
  2  8  4  0
  2 26  1  0
  2 31  4  0
  3  4  4  0
  3  7  1  0
  3 14  2  0
  3 33  1  0
  4  6  4  0
  4 14  4  0
  4 25  1  0
  5 16  1  0
  5 19  3  0
  5 22  4  0
  5 27  4  0
  6  8  1  0
  6 30  4  0
  7 11  4  0
  7 24  4  0
  8 23  4  0
  9 14  4  0
  9 30  4  0
 10 18  4  0
 10 21  4  0
 11 17  4  0
 12 16  4  0
 12 18  4  0
 12 29  1  0
 13 17  4  0
 13 29  1  0
 13 34  4  0
 15 16  1  0
 15 22  3  0
 15 32  4  0
 15 33  4  0
 16 21  4  0
 17 21  3  0
 18 33  4  0
 19 28  4  0
 19 31  4  0
 20 22  3  0
 20 23  3  0
 20 26  4  0
 22 27  1  0
 22 31  1  0
 23 28  4  0
 24 34  4  0
 25 26  4  0
 25 27  4  0
M  END
$$$$

 Created by Python create_sdf_string function

 34 38  0  0  0  0  0  0  0  0999 V2000
    2.9255  -11.8162   19.3967 N   0  0  0  0  0  0  0  0  0  0  0  0
    9.0180   -5.6144   17.4481 C   0  0  0  0  0  0  0  0  0  0  0  0
    0.4606   -9.9691   16.6984 N   0  0  0  0  0  0  0  0  0  0  0  0
   10.1741   -3.4691   26.2268 N   0  0  0  0  0  0  0  0  0  0  0  0
    5.6210   -8.2815   17.6617 C   0  0  0  0  0  0  0  0  0  0  0  0
    9.1007   -3.7618   27.1188 N   0  0  0  0  0  0  0  0  0  0  0  0
   -0.2054  -10.4414   15.5861 C   0  0  0  0  0  0  0  0  0  0  0  0
   10.0183   -5.6630   18.4150 C   0  0  0  0  0  0  0  0  0  0  0  0
    8.4135   -1.9758   25.6901 C   0  0  0  0  0  0  0  0  0  0  0  0
    3.3295  -10.7578   18.6650 C   0  0  0  0  0  0  0  0  0  0  0  0
   -0.6489  -11.7299   15.5414 C   0  0  0  0  0  0  0  0  0  0  0  0
    3.1731   -9.1043   17.1957 C   0  0  0  0  0  0  0  0  0  0  0  0
   -1.5067  -11.3996   13.3862 C   0  0  0  0  0  0  0  0  0  0  0  0
    9.7358   -2.3862   25.2964 N   0  0  0  0  0  0  0  0  0  0  0  0
    0.8403  -11.6207   18.4115 N   0  0  0  0  0  0  0  0  0  0  0  0
    4.4652   -9.1374   17.8159 C   0  0  0  0  0  0  0  0  0  0  0  0
   -1.2855  -12.2253   14.4506 C   0  0  0  0  0  0  0  0  0  0  0  0
    2.4872  -10.1373   17.7637 C   0  0  0  0  0  0  0  0  0  0  0  0
   10.1480   -3.6633   16.5151 C   0  0  0  0  0  0  0  0  0  0  0  0
    7.8115   -7.6887   18.2984 C   0  0  0  0  0  0  0  0  0  0  0  0
    4.5457  -10.1674   18.6817 N   0  0  0  0  0  0  0  0  0  0  0  0
    6.7342   -8.4863   18.4130 C   0  0  0  0  0  0  0  0  0  0  0  0
   11.0296   -4.6977   18.4378 C   0  0  0  0  0  0  0  0  0  0  0  0
   -0.4422   -9.6230   14.5244 C   0  0  0  0  0  0  0  0  0  0  0  0
    6.6792   -6.4555   16.6760 C   0  0  0  0  0  0  0  0  0  0  0  0
    7.8585   -6.5685   17.4627 C   0  0  0  0  0  0  0  0  0  0  0  0
    5.6289   -7.2411   16.7835 C   0  0  0  0  0  0  0  0  0  0  0  0
   11.0737   -3.7243   17.5158 C   0  0  0  0  0  0  0  0  0  0  0  0
    2.7320   -8.2911   16.2810 N   0  0  0  0  0  0  0  0  0  0  0  0
    7.9697   -2.9389   26.7348 N   0  0  0  0  0  0  0  0  0  0  0  0
    9.1226   -4.6069   16.4984 C   0  0  0  0  0  0  0  0  0  0  0  0
    1.6691  -12.2026   19.2872 C   0  0  0  0  0  0  0  0  0  0  0  0
    1.2610  -10.5977   17.6014 C   0  0  0  0  0  0  0  0  0  0  0  0
   -1.0860  -10.0953   13.4009 C   0  0  0  0  0  0  0  0  0  0  0  0
  1 10  4  0
  1 32  4  0
  2  8  4  0
  2 26  1  0
  2 31  4  0
  3  7  1  0
  3 33  1  0
  4  6  4  0
  4 14  4  0
  5 16  1  0
  5 22  4  0
  5 27  4  0
  6 30  4  0
  7 11  4  0
  7 24  4  0
  8 23  4  0
  9 14  4  0
  9 30  4  0
 10 18  4  0
 10 21  4  0
 11 17  4  0
 12 16  4  0
 12 18  4  0
 12 29  1  0
 13 17  4  0
 13 34  4  0
 15 32  4  0
 15 33  4  0
 16 21  4  0
 18 33  4  0
 19 28  4  0
 19 31  4  0
 20 22  4  0
 20 26  4  0
 23 28  4  0
 24 34  4  0
 25 26  4  0
 25 27  4  0
M  END
$$$$

 Created by Python create_sdf_string function

 34 51  0  0  0  0  0  0  0  0999 V2000
    2.8541  -11.8421   19.3664 N   0  0  0  0  0  0  0  0  0  0  0  0
    9.0944   -5.6274   17.4798 C   0  0  0  0  0  0  0  0  0  0  0  0
    0.4641   -9.8228   16.8258 N   0  0  0  0  0  0  0  0  0  0  0  0
   10.2094   -3.5307   26.1949 N   0  0  0  0  0  0  0  0  0  0  0  0
    5.6443   -8.3230   17.6215 S   0  0  0  0  0  0  0  0  0  0  0  0
    9.0765   -3.7892   27.0801 N   0  0  0  0  0  0  0  0  0  0  0  0
   -0.2190  -10.4371   15.6495 C   0  0  0  0  0  0  0  0  0  0  0  0
   10.1000   -5.6116   18.3598 C   0  0  0  0  0  0  0  0  0  0  0  0
    8.3684   -2.0594   25.7141 C   0  0  0  0  0  0  0  0  0  0  0  0
    3.3209  -10.7354   18.6837 C   0  0  0  0  0  0  0  0  0  0  0  0
   -0.6354  -11.6596   15.4922 C   0  0  0  0  0  0  0  0  0  0  0  0
    3.1786   -9.1331   17.0488 C   0  0  0  0  0  0  0  0  0  0  0  0
   -1.4977  -11.4503   13.3015 C   0  0  0  0  0  0  0  0  0  0  0  0
    9.7445   -2.3207   25.2724 N   0  0  0  0  0  0  0  0  0  0  0  0
    0.8287  -11.5598   18.4738 N   0  0  0  0  0  0  0  0  0  0  0  0
    4.4075   -9.0688   17.8418 C   0  0  0  0  0  0  0  0  0  0  0  0
   -1.2732  -12.2389   14.4602 C   0  0  0  0  0  0  0  0  0  0  0  0
    2.4585  -10.0887   17.7126 C   0  0  0  0  0  0  0  0  0  0  0  0
   10.1280   -3.5878   16.5185 C   0  0  0  0  0  0  0  0  0  0  0  0
    7.7385   -7.5469   18.2518 C   0  0  0  0  0  0  0  0  0  0  0  0
    4.5728  -10.2484   18.7421 N   0  0  0  0  0  0  0  0  0  0  0  0
    6.6583   -8.5767   18.3171 C   0  0  0  0  0  0  0  0  0  0  0  0
   10.9333   -4.7596   18.3861 C   0  0  0  0  0  0  0  0  0  0  0  0
   -0.3729   -9.6458   14.5718 C   0  0  0  0  0  0  0  0  0  0  0  0
    6.5998   -6.4579   16.6469 C   0  0  0  0  0  0  0  0  0  0  0  0
    7.8201   -6.7132   17.4826 C   0  0  0  0  0  0  0  0  0  0  0  0
    5.6259   -7.1784   16.6692 C   0  0  0  0  0  0  0  0  0  0  0  0
   11.0195   -3.8437   17.4147 C   0  0  0  0  0  0  0  0  0  0  0  0
    2.6485   -8.3265   16.1940 N   0  0  0  0  0  0  0  0  0  0  0  0
    8.0105   -2.9200   26.6964 N   0  0  0  0  0  0  0  0  0  0  0  0
    9.1475   -4.6230   16.4495 C   0  0  0  0  0  0  0  0  0  0  0  0
    1.7236  -12.3549   19.3673 C   0  0  0  0  0  0  0  0  0  0  0  0
    1.1284  -10.6303   17.5707 C   0  0  0  0  0  0  0  0  0  0  0  0
   -1.1114  -10.1149   13.4497 C   0  0  0  0  0  0  0  0  0  0  0  0
  1 10  4  0
  1 25  3  0
  1 32  4  0
  2  8  4  0
  2 26  1  0
  2 31  4  0
  3  7  1  0
  3 33  3  0
  4  6  4  0
  4 14  4  0
  5 16  1  0
  5 22  4  0
  5 26  4  0
  5 27  4  0
  6 18  1  0
  6 21  2  0
  6 30  4  0
  7 11  4  0
  7 25  3  0
  8 23  4  0
  9 14  4  0
  9 25  2  0
  9 30  4  0
 10 18  4  0
 10 21  4  0
 11 20  4  0
 12 16  4  0
 12 18  4  0
 12 29  1  0
 13 17  4  0
 13 21  4  0
 13 34  4  0
 15 18  3  0
 15 19  1  0
 15 32  4  0
 15 33  4  0
 16 21  4  0
 17 21  4  0
 18 33  4  0
 19 28  4  0
 19 31  4  0
 20 22  4  0
 20 26  4  0
 20 30  1  0
 21 27  4  0
 23 28  4  0
 24 34  4  0
 25 26  4  0
 25 27  4  0
 25 34  3  0
 27 29  3  0
M  END
$$$$

 Created by Python create_sdf_string function

 34 38  0  0  0  0  0  0  0  0999 V2000
    2.8990  -11.8246   19.4163 N   0  0  0  0  0  0  0  0  0  0  0  0
    8.9807   -5.6336   17.4164 C   0  0  0  0  0  0  0  0  0  0  0  0
    0.3734   -9.9557   16.7538 N   0  0  0  0  0  0  0  0  0  0  0  0
   10.1728   -3.4804   26.1707 N   0  0  0  0  0  0  0  0  0  0  0  0
    5.5844   -8.2966   17.6105 C   0  0  0  0  0  0  0  0  0  0  0  0
    9.0948   -3.7903   27.0447 N   0  0  0  0  0  0  0  0  0  0  0  0
   -0.2429  -10.4444   15.5964 C   0  0  0  0  0  0  0  0  0  0  0  0
   10.0042   -5.6844   18.3800 C   0  0  0  0  0  0  0  0  0  0  0  0
    8.3897   -2.0245   25.6798 C   0  0  0  0  0  0  0  0  0  0  0  0
    3.3031  -10.7800   18.6689 C   0  0  0  0  0  0  0  0  0  0  0  0
   -0.6832  -11.7389   15.5144 C   0  0  0  0  0  0  0  0  0  0  0  0
    3.1536   -9.1303   17.1668 C   0  0  0  0  0  0  0  0  0  0  0  0
   -1.5040  -11.4312   13.3419 C   0  0  0  0  0  0  0  0  0  0  0  0
    9.7380   -2.3647   25.2990 N   0  0  0  0  0  0  0  0  0  0  0  0
    0.8133  -11.6353   18.4253 N   0  0  0  0  0  0  0  0  0  0  0  0
    4.4580   -9.1518   17.7779 C   0  0  0  0  0  0  0  0  0  0  0  0
   -1.2977  -12.2516   14.4244 C   0  0  0  0  0  0  0  0  0  0  0  0
    2.4541  -10.1549   17.7612 C   0  0  0  0  0  0  0  0  0  0  0  0
   10.1292   -3.6799   16.4812 C   0  0  0  0  0  0  0  0  0  0  0  0
    7.7655   -7.6994   18.2567 C   0  0  0  0  0  0  0  0  0  0  0  0
    4.5035  -10.1750   18.6821 N   0  0  0  0  0  0  0  0  0  0  0  0
    6.7102   -8.5036   18.3718 C   0  0  0  0  0  0  0  0  0  0  0  0
   11.0331   -4.7362   18.3889 C   0  0  0  0  0  0  0  0  0  0  0  0
   -0.4649   -9.6549   14.5273 C   0  0  0  0  0  0  0  0  0  0  0  0
    6.6629   -6.4650   16.6333 C   0  0  0  0  0  0  0  0  0  0  0  0
    7.8287   -6.5726   17.4323 C   0  0  0  0  0  0  0  0  0  0  0  0
    5.5982   -7.2547   16.7177 C   0  0  0  0  0  0  0  0  0  0  0  0
   11.0637   -3.7586   17.4646 C   0  0  0  0  0  0  0  0  0  0  0  0
    2.6844   -8.3718   16.2085 N   0  0  0  0  0  0  0  0  0  0  0  0
    7.9810   -2.9209   26.7222 N   0  0  0  0  0  0  0  0  0  0  0  0
    9.0849   -4.6186   16.4658 C   0  0  0  0  0  0  0  0  0  0  0  0
    1.6515  -12.2361   19.2956 C   0  0  0  0  0  0  0  0  0  0  0  0
    1.2106  -10.5893   17.6367 C   0  0  0  0  0  0  0  0  0  0  0  0
   -1.0891  -10.1224   13.3940 C   0  0  0  0  0  0  0  0  0  0  0  0
  1 10  4  0
  1 32  4  0
  2  8  4  0
  2 26  1  0
  2 31  4  0
  3  7  1  0
  3 33  1  0
  4  6  4  0
  4 14  4  0
  5 16  1  0
  5 22  4  0
  5 27  4  0
  6 30  4  0
  7 11  4  0
  7 24  4  0
  8 23  4  0
  9 14  4  0
  9 30  4  0
 10 18  4  0
 10 21  4  0
 11 17  4  0
 12 16  4  0
 12 18  4  0
 12 29  1  0
 13 17  4  0
 13 34  4  0
 15 32  4  0
 15 33  4  0
 16 21  4  0
 18 33  4  0
 19 28  4  0
 19 31  4  0
 20 22  4  0
 20 26  4  0
 23 28  4  0
 24 34  4  0
 25 26  4  0
 25 27  4  0
M  END
$$$$

 Created by Python create_sdf_string function

 34 49  0  0  0  0  0  0  0  0999 V2000
    2.8555  -11.8728   19.4153 N   0  0  0  0  0  0  0  0  0  0  0  0
    8.9948   -5.6452   17.3981 C   0  0  0  0  0  0  0  0  0  0  0  0
    0.2951   -9.9330   16.7833 N   0  0  0  0  0  0  0  0  0  0  0  0
   10.1666   -3.3928   26.1389 N   0  0  0  0  0  0  0  0  0  0  0  0
    5.5963   -8.3352   17.7345 C   0  0  0  0  0  0  0  0  0  0  0  0
    9.0302   -3.7721   27.0228 N   0  0  0  0  0  0  0  0  0  0  0  0
   -0.2497  -10.5281   15.6395 C   0  0  0  0  0  0  0  0  0  0  0  0
   10.1315   -5.6379   18.4160 C   0  0  0  0  0  0  0  0  0  0  0  0
    8.4223   -2.0661   25.6409 C   0  0  0  0  0  0  0  0  0  0  0  0
    3.2513  -10.7599   18.6354 C   0  0  0  0  0  0  0  0  0  0  0  0
   -0.6968  -11.7942   15.4735 C   0  0  0  0  0  0  0  0  0  0  0  0
    3.1021   -9.2025   17.0834 C   0  0  0  0  0  0  0  0  0  0  0  0
   -1.4830  -11.3900   13.3790 C   0  0  0  0  0  0  0  0  0  0  0  0
    9.7816   -2.4724   25.3462 N   0  0  0  0  0  0  0  0  0  0  0  0
    0.8001  -11.6989   18.3648 N   0  0  0  0  0  0  0  0  0  0  0  0
    4.4790   -9.2071   17.7261 C   0  0  0  0  0  0  0  0  0  0  0  0
   -1.3034  -12.3214   14.4719 C   0  0  0  0  0  0  0  0  0  0  0  0
    2.4352  -10.1685   17.7956 C   0  0  0  0  0  0  0  0  0  0  0  0
   10.0743   -3.7693   16.5644 C   0  0  0  0  0  0  0  0  0  0  0  0
    7.6957   -7.7751   18.2503 C   0  0  0  0  0  0  0  0  0  0  0  0
    4.6923  -10.0705   18.6759 N   0  0  0  0  0  0  0  0  0  0  0  0
    6.7333   -8.5071   18.4190 C   0  0  0  0  0  0  0  0  0  0  0  0
   11.0604   -4.6970   18.3280 C   0  0  0  0  0  0  0  0  0  0  0  0
   -0.4913   -9.7307   14.5095 C   0  0  0  0  0  0  0  0  0  0  0  0
    6.6310   -6.4374   16.6902 C   0  0  0  0  0  0  0  0  0  0  0  0
    5.6111   -7.2311   16.7802 C   0  0  0  0  0  0  0  0  0  0  0  0
   11.1207   -3.7314   17.4428 C   0  0  0  0  0  0  0  0  0  0  0  0
    2.6911   -8.3844   16.1711 N   0  0  0  0  0  0  0  0  0  0  0  0
    7.9394   -2.9475   26.7229 N   0  0  0  0  0  0  0  0  0  0  0  0
    9.1310   -4.6242   16.5159 C   0  0  0  0  0  0  0  0  0  0  0  0
    1.6606  -12.2294   19.3369 C   0  0  0  0  0  0  0  0  0  0  0  0
    1.1923  -10.6807   17.6095 C   0  0  0  0  0  0  0  0  0  0  0  0
   -1.0297  -10.0214   13.4405 C   0  0  0  0  0  0  0  0  0  0  0  0
    7.7293   -6.5682   17.5616 He  0  0  0  0  0  0  0  0  0  0  0  0
  1 10  4  0
  1 31  4  0
  2 24  4  0
  2 30  4  0
  3  7  1  0
  3 32  1  0
  4  6  4  0
  4 14  4  0
  4 15  2  0
  4 29  3  0
  5 16  1  0
  5 22  4  0
  5 26  4  0
  5 30  2  0
  6 18  2  0
  6 29  4  0
  7 11  4  0
  7 24  4  0
  8 23  4  0
  9 14  4  0
  9 29  4  0
 10 13  1  0
 10 18  4  0
 10 21  4  0
 10 33  4  0
 11 17  4  0
 11 26  3  0
 11 28  2  0
 12 16  4  0
 12 18  4  0
 12 26  1  0
 12 28  1  0
 13 17  4  0
 13 21  1  0
 13 33  4  0
 15 16  1  0
 15 31  4  0
 15 32  4  0
 16 32  4  0
 17 31  1  0
 18 25  2  0
 18 32  4  0
 19 27  4  0
 19 30  4  0
 20 22  4  0
 22 23  2  0
 23 27  4  0
 24 33  4  0
 25 26  4  0
M  END
$$$$

 Created by Python create_sdf_string function

 34 38  0  0  0  0  0  0  0  0999 V2000
    2.8723  -11.8141   19.4422 N   0  0  0  0  0  0  0  0  0  0  0  0
    8.9830   -5.6489   17.4495 C   0  0  0  0  0  0  0  0  0  0  0  0
    0.3251  -10.0238   16.7736 N   0  0  0  0  0  0  0  0  0  0  0  0
   10.1416   -3.4561   26.1937 N   0  0  0  0  0  0  0  0  0  0  0  0
    5.6024   -8.3019   17.6356 C   0  0  0  0  0  0  0  0  0  0  0  0
    9.0479   -3.7906   27.0327 N   0  0  0  0  0  0  0  0  0  0  0  0
   -0.2795  -10.5178   15.6140 C   0  0  0  0  0  0  0  0  0  0  0  0
   10.0543   -5.6711   18.3892 C   0  0  0  0  0  0  0  0  0  0  0  0
    8.3962   -2.0407   25.6329 C   0  0  0  0  0  0  0  0  0  0  0  0
    3.2891  -10.7905   18.6598 C   0  0  0  0  0  0  0  0  0  0  0  0
   -0.7191  -11.8177   15.5243 C   0  0  0  0  0  0  0  0  0  0  0  0
    3.1252   -9.1836   17.1416 C   0  0  0  0  0  0  0  0  0  0  0  0
   -1.5007  -11.4237   13.3569 C   0  0  0  0  0  0  0  0  0  0  0  0
    9.7478   -2.4063   25.3036 N   0  0  0  0  0  0  0  0  0  0  0  0
    0.7863  -11.6954   18.4185 N   0  0  0  0  0  0  0  0  0  0  0  0
    4.4465   -9.1672   17.7704 C   0  0  0  0  0  0  0  0  0  0  0  0
   -1.3275  -12.2751   14.4026 C   0  0  0  0  0  0  0  0  0  0  0  0
    2.4401  -10.2043   17.7474 C   0  0  0  0  0  0  0  0  0  0  0  0
   10.1091   -3.7183   16.4961 C   0  0  0  0  0  0  0  0  0  0  0  0
    7.7692   -7.7000   18.3045 C   0  0  0  0  0  0  0  0  0  0  0  0
    4.5152  -10.1896   18.6667 N   0  0  0  0  0  0  0  0  0  0  0  0
    6.7145   -8.5223   18.3992 C   0  0  0  0  0  0  0  0  0  0  0  0
   11.0731   -4.7374   18.3760 C   0  0  0  0  0  0  0  0  0  0  0  0
   -0.4724   -9.6894   14.5649 C   0  0  0  0  0  0  0  0  0  0  0  0
    6.6586   -6.4326   16.7146 C   0  0  0  0  0  0  0  0  0  0  0  0
    7.8178   -6.5958   17.4810 C   0  0  0  0  0  0  0  0  0  0  0  0
    5.5962   -7.2335   16.7755 C   0  0  0  0  0  0  0  0  0  0  0  0
   11.0815   -3.7704   17.4394 C   0  0  0  0  0  0  0  0  0  0  0  0
    2.6767   -8.4373   16.1835 N   0  0  0  0  0  0  0  0  0  0  0  0
    7.9401   -2.9263   26.6971 N   0  0  0  0  0  0  0  0  0  0  0  0
    9.0660   -4.6414   16.5084 C   0  0  0  0  0  0  0  0  0  0  0  0
    1.6328  -12.2434   19.2966 C   0  0  0  0  0  0  0  0  0  0  0  0
    1.1910  -10.6517   17.6330 C   0  0  0  0  0  0  0  0  0  0  0  0
   -1.0819  -10.1249   13.4192 C   0  0  0  0  0  0  0  0  0  0  0  0
  1 10  4  0
  1 32  4  0
  2  8  4  0
  2 26  1  0
  2 31  4  0
  3  7  1  0
  3 33  1  0
  4  6  4  0
  4 14  4  0
  5 16  1  0
  5 22  4  0
  5 27  4  0
  6 30  4  0
  7 11  4  0
  7 24  4  0
  8 23  4  0
  9 14  4  0
  9 30  4  0
 10 18  4  0
 10 21  4  0
 11 17  4  0
 12 16  4  0
 12 18  4  0
 12 29  1  0
 13 17  4  0
 13 34  4  0
 15 32  4  0
 15 33  4  0
 16 21  4  0
 18 33  4  0
 19 28  4  0
 19 31  4  0
 20 22  4  0
 20 26  4  0
 23 28  4  0
 24 34  4  0
 25 26  4  0
 25 27  4  0
M  END
$$$$

 Created by Python create_sdf_string function

 34 48  0  0  0  0  0  0  0  0999 V2000
    2.9304  -11.8956   19.4711 N   0  0  0  0  0  0  0  0  0  0  0  0
    8.9603   -5.6986   17.4278 C   0  0  0  0  0  0  0  0  0  0  0  0
    0.2520  -10.0778   16.7387 N   0  0  0  0  0  0  0  0  0  0  0  0
   10.1176   -3.4778   26.1697 N   0  0  0  0  0  0  0  0  0  0  0  0
    5.6903   -8.3410   17.6997 C   0  0  0  0  0  0  0  0  0  0  0  0
    9.0173   -3.7856   27.0419 N   0  0  0  0  0  0  0  0  0  0  0  0
   -0.3802  -10.5235   15.5711 C   0  0  0  0  0  0  0  0  0  0  0  0
   10.0582   -5.6951   18.3282 C   0  0  0  0  0  0  0  0  0  0  0  0
    8.4101   -1.9942   25.6007 C   0  0  0  0  0  0  0  0  0  0  0  0
    3.2974  -10.7242   18.6182 C   0  0  0  0  0  0  0  0  0  0  0  0
   -0.7326  -11.9259   15.5759 C   0  0  0  0  0  0  0  0  0  0  0  0
    3.1496   -9.1540   17.1136 C   0  0  0  0  0  0  0  0  0  0  0  0
   -1.4663  -11.3444   13.3571 C   0  0  0  0  0  0  0  0  0  0  0  0
    9.7426   -2.4458   25.3141 N   0  0  0  0  0  0  0  0  0  0  0  0
    0.7911  -11.7551   18.3793 N   0  0  0  0  0  0  0  0  0  0  0  0
    4.4228   -9.2233   17.6097 C   0  0  0  0  0  0  0  0  0  0  0  0
   -1.3318  -12.3346   14.4309 C   0  0  0  0  0  0  0  0  0  0  0  0
    2.3924  -10.2007   17.6255 C   0  0  0  0  0  0  0  0  0  0  0  0
   10.0699   -3.6910   16.4644 C   0  0  0  0  0  0  0  0  0  0  0  0
    7.7797   -7.6735   18.3829 C   0  0  0  0  0  0  0  0  0  0  0  0
    4.5334  -10.0845   18.5904 N   0  0  0  0  0  0  0  0  0  0  0  0
    6.6553   -8.5386   18.4850 C   0  0  0  0  0  0  0  0  0  0  0  0
   11.1346   -4.7827   18.3626 C   0  0  0  0  0  0  0  0  0  0  0  0
   -0.4793   -9.6202   14.5479 C   0  0  0  0  0  0  0  0  0  0  0  0
    6.6330   -6.3497   16.6758 C   0  0  0  0  0  0  0  0  0  0  0  0
    7.8863   -6.6177   17.4048 C   0  0  0  0  0  0  0  0  0  0  0  0
    5.5478   -7.2073   16.8428 C   0  0  0  0  0  0  0  0  0  0  0  0
   11.0300   -3.6383   17.5153 C   0  0  0  0  0  0  0  0  0  0  0  0
    2.6734   -8.4870   16.2422 N   0  0  0  0  0  0  0  0  0  0  0  0
    8.0277   -2.9775   26.7712 N   0  0  0  0  0  0  0  0  0  0  0  0
    9.0270   -4.6498   16.5860 C   0  0  0  0  0  0  0  0  0  0  0  0
    1.6745  -12.2602   19.3267 C   0  0  0  0  0  0  0  0  0  0  0  0
    1.1870  -10.6732   17.5513 C   0  0  0  0  0  0  0  0  0  0  0  0
   -1.0770  -10.1128   13.4138 C   0  0  0  0  0  0  0  0  0  0  0  0
  1 10  4  0
  1 32  4  0
  2  8  4  0
  2 26  1  0
  2 31  4  0
  3  7  1  0
  3 15  1  0
  3 33  1  0
  4 14  4  0
  5 16  1  0
  5 22  4  0
  5 27  4  0
  5 34  1  0
  6 25  2  0
  6 30  4  0
  7 11  4  0
  7 24  4  0
  8 31  2  0
  9 14  4  0
  9 23  3  0
  9 30  4  0
 10 18  4  0
 10 21  4  0
 11 17  4  0
 12 16  4  0
 12 18  4  0
 12 29  1  0
 13 17  4  0
 13 34  4  0
 14 31  1  0
 15 32  4  0
 15 33  4  0
 16 21  4  0
 18 28  1  0
 18 33  4  0
 19 28  4  0
 19 30  2  0
 19 31  4  0
 20 22  4  0
 20 26  4  0
 21 27  4  0
 23 28  4  0
 24 34  4  0
 25 26  4  0
 25 27  4  0
 25 31  3  0
 27 30  1  0
 27 32  3  0
M  END
$$$$

 Created by Python create_sdf_string function

 34 38  0  0  0  0  0  0  0  0999 V2000
    2.9051  -11.8063   19.4182 N   0  0  0  0  0  0  0  0  0  0  0  0
    8.9807   -5.6469   17.4366 C   0  0  0  0  0  0  0  0  0  0  0  0
    0.3003  -10.1016   16.7646 N   0  0  0  0  0  0  0  0  0  0  0  0
   10.1239   -3.4936   26.1713 N   0  0  0  0  0  0  0  0  0  0  0  0
    5.5978   -8.2835   17.6377 C   0  0  0  0  0  0  0  0  0  0  0  0
    9.0463   -3.7890   27.0299 N   0  0  0  0  0  0  0  0  0  0  0  0
   -0.3360  -10.5589   15.6053 C   0  0  0  0  0  0  0  0  0  0  0  0
   10.0792   -5.6973   18.3315 C   0  0  0  0  0  0  0  0  0  0  0  0
    8.3917   -2.0066   25.6370 C   0  0  0  0  0  0  0  0  0  0  0  0
    3.2981  -10.7786   18.6211 C   0  0  0  0  0  0  0  0  0  0  0  0
   -0.7744  -11.8727   15.5230 C   0  0  0  0  0  0  0  0  0  0  0  0
    3.1201   -9.1957   17.0934 C   0  0  0  0  0  0  0  0  0  0  0  0
   -1.5127  -11.4299   13.3292 C   0  0  0  0  0  0  0  0  0  0  0  0
    9.7366   -2.4160   25.2859 N   0  0  0  0  0  0  0  0  0  0  0  0
    0.8018  -11.7482   18.3890 N   0  0  0  0  0  0  0  0  0  0  0  0
    4.4408   -9.1652   17.7319 C   0  0  0  0  0  0  0  0  0  0  0  0
   -1.3657  -12.3229   14.3736 C   0  0  0  0  0  0  0  0  0  0  0  0
    2.4248  -10.2074   17.7013 C   0  0  0  0  0  0  0  0  0  0  0  0
   10.0601   -3.6616   16.5104 C   0  0  0  0  0  0  0  0  0  0  0  0
    7.7750   -7.6926   18.3382 C   0  0  0  0  0  0  0  0  0  0  0  0
    4.5184  -10.1724   18.6147 N   0  0  0  0  0  0  0  0  0  0  0  0
    6.7045   -8.5048   18.4270 C   0  0  0  0  0  0  0  0  0  0  0  0
   11.0813   -4.7607   18.3618 C   0  0  0  0  0  0  0  0  0  0  0  0
   -0.5181   -9.6987   14.5639 C   0  0  0  0  0  0  0  0  0  0  0  0
    6.6489   -6.4185   16.6950 C   0  0  0  0  0  0  0  0  0  0  0  0
    7.8192   -6.5797   17.4845 C   0  0  0  0  0  0  0  0  0  0  0  0
    5.5847   -7.2181   16.7781 C   0  0  0  0  0  0  0  0  0  0  0  0
   11.0513   -3.7072   17.4759 C   0  0  0  0  0  0  0  0  0  0  0  0
    2.6413   -8.4563   16.1774 N   0  0  0  0  0  0  0  0  0  0  0  0
    7.9689   -2.9074   26.7233 N   0  0  0  0  0  0  0  0  0  0  0  0
    9.0445   -4.6202   16.5202 C   0  0  0  0  0  0  0  0  0  0  0  0
    1.6588  -12.2567   19.2959 C   0  0  0  0  0  0  0  0  0  0  0  0
    1.1816  -10.6971   17.5974 C   0  0  0  0  0  0  0  0  0  0  0  0
   -1.1049  -10.1258   13.3996 C   0  0  0  0  0  0  0  0  0  0  0  0
  1 10  4  0
  1 32  4  0
  2  8  4  0
  2 26  1  0
  2 31  4  0
  3  7  1  0
  3 33  1  0
  4  6  4  0
  4 14  4  0
  5 16  1  0
  5 22  4  0
  5 27  4  0
  6 30  4  0
  7 11  4  0
  7 24  4  0
  8 23  4  0
  9 14  4  0
  9 30  4  0
 10 18  4  0
 10 21  4  0
 11 17  4  0
 12 16  4  0
 12 18  4  0
 12 29  1  0
 13 17  4  0
 13 34  4  0
 15 32  4  0
 15 33  4  0
 16 21  4  0
 18 33  4  0
 19 28  4  0
 19 31  4  0
 20 22  4  0
 20 26  4  0
 23 28  4  0
 24 34  4  0
 25 26  4  0
 25 27  4  0
M  END
$$$$

 Created by Python create_sdf_string function

 34 54  0  0  0  0  0  0  0  0999 V2000
    2.8624  -11.8620   19.3895 N   0  0  0  0  0  0  0  0  0  0  0  0
    9.0300   -5.6515   17.4628 C   0  0  0  0  0  0  0  0  0  0  0  0
    0.2924  -10.1553   16.7990 N   0  0  0  0  0  0  0  0  0  0  0  0
   10.1405   -3.5500   26.1682 N   0  0  0  0  0  0  0  0  0  0  0  0
    5.5852   -8.3549   17.7485 F   0  0  0  0  0  0  0  0  0  0  0  0
    9.1469   -3.7533   26.9702 N   0  0  0  0  0  0  0  0  0  0  0  0
   -0.2897  -10.5524   15.5533 C   0  0  0  0  0  0  0  0  0  0  0  0
   10.0988   -5.7059   18.3217 C   0  0  0  0  0  0  0  0  0  0  0  0
    8.3268   -1.9776   25.6901 C   0  0  0  0  0  0  0  0  0  0  0  0
    3.3330  -10.7062   18.6921 C   0  0  0  0  0  0  0  0  0  0  0  0
   -0.8516  -11.8344   15.6441 C   0  0  0  0  0  0  0  0  0  0  0  0
    3.0514   -9.1726   17.1018 C   0  0  0  0  0  0  0  0  0  0  0  0
   -1.5890  -11.4977   13.2659 C   0  0  0  0  0  0  0  0  0  0  0  0
    9.7064   -2.3202   25.2562 N   0  0  0  0  0  0  0  0  0  0  0  0
    0.8098  -11.6807   18.4007 N   0  0  0  0  0  0  0  0  0  0  0  0
    4.3795   -9.1919   17.7391 C   0  0  0  0  0  0  0  0  0  0  0  0
   -1.4601  -12.3557   14.3850 C   0  0  0  0  0  0  0  0  0  0  0  0
    2.4104  -10.2429   17.6563 C   0  0  0  0  0  0  0  0  0  0  0  0
   10.0225   -3.7270   16.4774 C   0  0  0  0  0  0  0  0  0  0  0  0
    7.8178   -7.6813   18.3524 C   0  0  0  0  0  0  0  0  0  0  0  0
    4.5233  -10.2504   18.7050 N   0  0  0  0  0  0  0  0  0  0  0  0
    6.6075   -8.4805   18.4294 C   0  0  0  0  0  0  0  0  0  0  0  0
   11.0215   -4.7287   18.3836 C   0  0  0  0  0  0  0  0  0  0  0  0
   -0.4565   -9.6436   14.5154 C   0  0  0  0  0  0  0  0  0  0  0  0
    6.6622   -6.3878   16.6428 C   0  0  0  0  0  0  0  0  0  0  0  0
    7.8220   -6.5554   17.4649 C   0  0  0  0  0  0  0  0  0  0  0  0
    5.5991   -7.2952   16.7212 C   0  0  0  0  0  0  0  0  0  0  0  0
   11.0708   -3.7448   17.5031 C   0  0  0  0  0  0  0  0  0  0  0  0
    2.6245   -8.4558   16.1077 N   0  0  0  0  0  0  0  0  0  0  0  0
    7.9538   -2.8988   26.7015 N   0  0  0  0  0  0  0  0  0  0  0  0
    9.0641   -4.6821   16.4178 C   0  0  0  0  0  0  0  0  0  0  0  0
    1.7519  -12.2936   19.2629 C   0  0  0  0  0  0  0  0  0  0  0  0
    1.1005  -10.6799   17.4785 C   0  0  0  0  0  0  0  0  0  0  0  0
   -1.1034  -10.1699   13.3755 C   0  0  0  0  0  0  0  0  0  0  0  0
  1 10  4  0
  1 32  4  0
  2  8  1  0
  2 15  3  0
  2 18  2  0
  2 26  1  0
  2 29  4  0
  2 31  1  0
  3  7  1  0
  3 17  3  0
  3 33  1  0
  4  6  4  0
  4 14  4  0
  4 34  1  0
  5 13  3  0
  5 16  1  0
  5 22  4  0
  5 25  4  0
  5 27  4  0
  6 30  4  0
  6 31  1  0
  6 34  3  0
  7 11  4  0
  7 24  4  0
  8 23  4  0
  9 10  3  0
  9 14  4  0
  9 17  3  0
  9 30  4  0
 10 18  4  0
 10 21  4  0
 10 24  3  0
 11 17  4  0
 12 16  4  0
 12 18  4  0
 12 29  1  0
 13 17  4  0
 13 34  4  0
 15 32  4  0
 15 33  4  0
 16 20  1  0
 16 21  4  0
 17 24  2  0
 18 29  4  0
 18 33  4  0
 19 28  4  0
 19 31  4  0
 20 22  4  0
 20 26  4  0
 21 33  3  0
 24 34  4  0
 25 26  4  0
 25 27  4  0
 28 32  4  0
M  END
$$$$

 Created by Python create_sdf_string function

 34 38  0  0  0  0  0  0  0  0999 V2000
    2.8941  -11.8304   19.4049 N   0  0  0  0  0  0  0  0  0  0  0  0
    8.9781   -5.6772   17.4298 C   0  0  0  0  0  0  0  0  0  0  0  0
    0.3010  -10.1018   16.7401 N   0  0  0  0  0  0  0  0  0  0  0  0
   10.1251   -3.4685   26.1066 N   0  0  0  0  0  0  0  0  0  0  0  0
    5.5670   -8.3048   17.6431 C   0  0  0  0  0  0  0  0  0  0  0  0
    9.0873   -3.7665   26.9826 N   0  0  0  0  0  0  0  0  0  0  0  0
   -0.3386  -10.5679   15.5846 C   0  0  0  0  0  0  0  0  0  0  0  0
   10.0395   -5.6978   18.3497 C   0  0  0  0  0  0  0  0  0  0  0  0
    8.3475   -1.9590   25.6681 C   0  0  0  0  0  0  0  0  0  0  0  0
    3.2725  -10.8094   18.6516 C   0  0  0  0  0  0  0  0  0  0  0  0
   -0.8677  -11.8398   15.5306 C   0  0  0  0  0  0  0  0  0  0  0  0
    3.1109   -9.2125   17.1257 C   0  0  0  0  0  0  0  0  0  0  0  0
   -1.5907  -11.4835   13.2899 C   0  0  0  0  0  0  0  0  0  0  0  0
    9.7008   -2.3362   25.2585 N   0  0  0  0  0  0  0  0  0  0  0  0
    0.8155  -11.7482   18.3824 N   0  0  0  0  0  0  0  0  0  0  0  0
    4.4229   -9.1811   17.7773 C   0  0  0  0  0  0  0  0  0  0  0  0
   -1.4772  -12.3284   14.3951 C   0  0  0  0  0  0  0  0  0  0  0  0
    2.4107  -10.2209   17.7228 C   0  0  0  0  0  0  0  0  0  0  0  0
   10.0695   -3.7013   16.4706 C   0  0  0  0  0  0  0  0  0  0  0  0
    7.7466   -7.6889   18.3476 C   0  0  0  0  0  0  0  0  0  0  0  0
    4.4939  -10.1855   18.6853 N   0  0  0  0  0  0  0  0  0  0  0  0
    6.6696   -8.4818   18.4383 C   0  0  0  0  0  0  0  0  0  0  0  0
   11.0336   -4.7388   18.3705 C   0  0  0  0  0  0  0  0  0  0  0  0
   -0.4892   -9.7330   14.5014 C   0  0  0  0  0  0  0  0  0  0  0  0
    6.6341   -6.4675   16.6552 C   0  0  0  0  0  0  0  0  0  0  0  0
    7.8061   -6.5994   17.4712 C   0  0  0  0  0  0  0  0  0  0  0  0
    5.5830   -7.2843   16.7474 C   0  0  0  0  0  0  0  0  0  0  0  0
   11.0406   -3.7370   17.4475 C   0  0  0  0  0  0  0  0  0  0  0  0
    2.6387   -8.4773   16.1544 N   0  0  0  0  0  0  0  0  0  0  0  0
    7.9535   -2.8932   26.7104 N   0  0  0  0  0  0  0  0  0  0  0  0
    9.0452   -4.6664   16.4653 C   0  0  0  0  0  0  0  0  0  0  0  0
    1.6649  -12.2816   19.2688 C   0  0  0  0  0  0  0  0  0  0  0  0
    1.1688  -10.6960   17.5926 C   0  0  0  0  0  0  0  0  0  0  0  0
   -1.1187  -10.1815   13.3407 C   0  0  0  0  0  0  0  0  0  0  0  0
  1 10  4  0
  1 32  4  0
  2  8  4  0
  2 26  1  0
  2 31  4  0
  3  7  1  0
  3 33  1  0
  4  6  4  0
  4 14  4  0
  5 16  1  0
  5 22  4  0
  5 27  4  0
  6 30  4  0
  7 11  4  0
  7 24  4  0
  8 23  4  0
  9 14  4  0
  9 30  4  0
 10 18  4  0
 10 21  4  0
 11 17  4  0
 12 16  4  0
 12 18  4  0
 12 29  1  0
 13 17  4  0
 13 34  4  0
 15 32  4  0
 15 33  4  0
 16 21  4  0
 18 33  4  0
 19 28  4  0
 19 31  4  0
 20 22  4  0
 20 26  4  0
 23 28  4  0
 24 34  4  0
 25 26  4  0
 25 27  4  0
M  END
$$$$

 Created by Python create_sdf_string function

 34 50  0  0  0  0  0  0  0  0999 V2000
    2.8526  -11.8026   19.4822 N   0  0  0  0  0  0  0  0  0  0  0  0
    8.9098   -5.6076   17.4310 C   0  0  0  0  0  0  0  0  0  0  0  0
    0.3704  -10.0864   16.7293 N   0  0  0  0  0  0  0  0  0  0  0  0
   10.1446   -3.5000   26.0612 N   0  0  0  0  0  0  0  0  0  0  0  0
    5.5418   -8.3527   17.7040 C   0  0  0  0  0  0  0  0  0  0  0  0
    9.0414   -3.7299   26.9478 N   0  0  0  0  0  0  0  0  0  0  0  0
   -0.3722  -10.6163   15.6231 C   0  0  0  0  0  0  0  0  0  0  0  0
   10.0514   -5.6638   18.2351 C   0  0  0  0  0  0  0  0  0  0  0  0
    8.3098   -1.9754   25.5996 O   0  0  0  0  0  0  0  0  0  0  0  0
    3.3261  -10.8525   18.6938 C   0  0  0  0  0  0  0  0  0  0  0  0
   -0.8841  -11.8904   15.5694 C   0  0  0  0  0  0  0  0  0  0  0  0
    3.0865   -9.2077   17.1270 C   0  0  0  0  0  0  0  0  0  0  0  0
   -1.6062  -11.4273   13.2770 C   0  0  0  0  0  0  0  0  0  0  0  0
    9.7533   -2.3543   25.2274 N   0  0  0  0  0  0  0  0  0  0  0  0
    0.8352  -11.7742   18.4056 N   0  0  0  0  0  0  0  0  0  0  0  0
    4.4475   -9.1661   17.7120 C   0  0  0  0  0  0  0  0  0  0  0  0
   -1.4555  -12.2612   14.3900 C   0  0  0  0  0  0  0  0  0  0  0  0
    2.4676  -10.2448   17.7304 C   0  0  0  0  0  0  0  0  0  0  0  0
   10.0473   -3.7467   16.4993 C   0  0  0  0  0  0  0  0  0  0  0  0
    7.7327   -7.6307   18.3645 C   0  0  0  0  0  0  0  0  0  0  0  0
    4.5188  -10.1773   18.7021 N   0  0  0  0  0  0  0  0  0  0  0  0
    6.6595   -8.4522   18.4633 C   0  0  0  0  0  0  0  0  0  0  0  0
   11.1062   -4.6984   18.4180 C   0  0  0  0  0  0  0  0  0  0  0  0
   -0.4554   -9.6712   14.4580 C   0  0  0  0  0  0  0  0  0  0  0  0
    6.6532   -6.5006   16.6958 C   0  0  0  0  0  0  0  0  0  0  0  0
    7.7382   -6.6068   17.4063 C   0  0  0  0  0  0  0  0  0  0  0  0
    5.5846   -7.3238   16.7884 C   0  0  0  0  0  0  0  0  0  0  0  0
   11.1349   -3.7632   17.5285 C   0  0  0  0  0  0  0  0  0  0  0  0
    2.6609   -8.4406   16.1011 N   0  0  0  0  0  0  0  0  0  0  0  0
    7.9298   -2.8672   26.6917 N   0  0  0  0  0  0  0  0  0  0  0  0
    1.6694  -12.3240   19.2902 C   0  0  0  0  0  0  0  0  0  0  0  0
    1.1958  -10.7301   17.6178 C   0  0  0  0  0  0  0  0  0  0  0  0
   -1.1585  -10.2129   13.3867 C   0  0  0  0  0  0  0  0  0  0  0  0
    9.0254   -4.7279   16.5810 He  0  0  0  0  0  0  0  0  0  0  0  0
  1 10  4  0
  1 22  2  0
  1 25  3  0
  1 31  4  0
  1 32  2  0
  2  8  4  0
  2 26  1  0
  3  7  1  0
  3 32  1  0
  4  6  4  0
  4 14  4  0
  5  8  2  0
  5 16  1  0
  5 22  4  0
  5 25  3  0
  5 27  4  0
  6 30  4  0
  7 11  4  0
  7 24  4  0
  8 23  4  0
  9 14  4  0
  9 17  4  0
  9 30  4  0
 10 21  4  0
 10 32  1  0
 11 17  4  0
 11 21  4  0
 12 16  4  0
 12 18  4  0
 12 29  1  0
 13 16  4  0
 13 17  4  0
 13 33  4  0
 15 31  4  0
 15 32  4  0
 16 21  4  0
 18 32  4  0
 19 21  2  0
 19 28  4  0
 20 22  4  0
 20 26  4  0
 21 30  3  0
 22 33  4  0
 23 28  4  0
 24 33  4  0
 25 26  4  0
 25 27  4  0
 27 33  3  0
 28 30  4  0
 31 32  2  0
M  END
$$$$

 Created by Python create_sdf_string function

 34 38  0  0  0  0  0  0  0  0999 V2000
    2.8888  -11.8388   19.4562 N   0  0  0  0  0  0  0  0  0  0  0  0
    8.9562   -5.6523   17.4346 C   0  0  0  0  0  0  0  0  0  0  0  0
    0.3462  -10.1447   16.7238 N   0  0  0  0  0  0  0  0  0  0  0  0
   10.1167   -3.4676   26.0563 N   0  0  0  0  0  0  0  0  0  0  0  0
    5.5632   -8.3061   17.6494 C   0  0  0  0  0  0  0  0  0  0  0  0
    9.0421   -3.7497   26.9503 N   0  0  0  0  0  0  0  0  0  0  0  0
   -0.3526  -10.5864   15.5801 C   0  0  0  0  0  0  0  0  0  0  0  0
   10.0229   -5.6860   18.3413 C   0  0  0  0  0  0  0  0  0  0  0  0
    8.3592   -1.9832   25.5976 N   0  0  0  0  0  0  0  0  0  0  0  0
    3.2834  -10.8021   18.6757 C   0  0  0  0  0  0  0  0  0  0  0  0
   -0.8809  -11.8534   15.5229 C   0  0  0  0  0  0  0  0  0  0  0  0
    3.1105   -9.2234   17.1200 C   0  0  0  0  0  0  0  0  0  0  0  0
   -1.6230  -11.4663   13.3198 C   0  0  0  0  0  0  0  0  0  0  0  0
    9.7205   -2.3557   25.2181 N   0  0  0  0  0  0  0  0  0  0  0  0
    0.8112  -11.7819   18.3915 N   0  0  0  0  0  0  0  0  0  0  0  0
    4.4126   -9.1898   17.7744 C   0  0  0  0  0  0  0  0  0  0  0  0
   -1.4978  -12.3098   14.4016 C   0  0  0  0  0  0  0  0  0  0  0  0
    2.4277  -10.2365   17.7370 C   0  0  0  0  0  0  0  0  0  0  0  0
   10.0652   -3.7179   16.5010 C   0  0  0  0  0  0  0  0  0  0  0  0
    7.7166   -7.6559   18.3544 C   0  0  0  0  0  0  0  0  0  0  0  0
    4.4982  -10.1842   18.6811 N   0  0  0  0  0  0  0  0  0  0  0  0
    6.6541   -8.4615   18.4490 C   0  0  0  0  0  0  0  0  0  0  0  0
   11.0500   -4.7717   18.3850 C   0  0  0  0  0  0  0  0  0  0  0  0
   -0.5023   -9.7474   14.5098 C   0  0  0  0  0  0  0  0  0  0  0  0
    6.6248   -6.4934   16.6507 C   0  0  0  0  0  0  0  0  0  0  0  0
    7.7731   -6.5923   17.4773 C   0  0  0  0  0  0  0  0  0  0  0  0
    5.5752   -7.2948   16.7374 C   0  0  0  0  0  0  0  0  0  0  0  0
   11.0577   -3.7686   17.4502 C   0  0  0  0  0  0  0  0  0  0  0  0
    2.6419   -8.4765   16.1446 N   0  0  0  0  0  0  0  0  0  0  0  0
    7.9512   -2.8614   26.6677 N   0  0  0  0  0  0  0  0  0  0  0  0
    9.0202   -4.6456   16.5101 C   0  0  0  0  0  0  0  0  0  0  0  0
    1.6546  -12.2964   19.3007 C   0  0  0  0  0  0  0  0  0  0  0  0
    1.2074  -10.7353   17.6135 C   0  0  0  0  0  0  0  0  0  0  0  0
   -1.1414  -10.1781   13.3645 C   0  0  0  0  0  0  0  0  0  0  0  0
  1 10  4  0
  1 32  4  0
  2  8  4  0
  2 26  1  0
  2 31  4  0
  3  7  1  0
  3 33  1  0
  4  6  4  0
  4 14  4  0
  5 16  1  0
  5 22  4  0
  5 27  4  0
  6 30  4  0
  7 11  4  0
  7 24  4  0
  8 23  4  0
  9 14  4  0
  9 30  4  0
 10 18  4  0
 10 21  4  0
 11 17  4  0
 12 16  4  0
 12 18  4  0
 12 29  1  0
 13 17  4  0
 13 34  4  0
 15 32  4  0
 15 33  4  0
 16 21  4  0
 18 33  4  0
 19 28  4  0
 19 31  4  0
 20 22  4  0
 20 26  4  0
 23 28  4  0
 24 34  4  0
 25 26  4  0
 25 27  4  0
M  END
$$$$

 Created by Python create_sdf_string function

 34 49  0  0  0  0  0  0  0  0999 V2000
    2.8467  -11.8188   19.4567 N   0  0  0  0  0  0  0  0  0  0  0  0
    8.9661   -5.7064   17.4540 C   0  0  0  0  0  0  0  0  0  0  0  0
    0.3137  -10.1909   16.7994 N   0  0  0  0  0  0  0  0  0  0  0  0
   10.1093   -3.4579   26.0196 N   0  0  0  0  0  0  0  0  0  0  0  0
    5.5568   -8.2980   17.6229 C   0  0  0  0  0  0  0  0  0  0  0  0
    9.0321   -3.7555   26.8988 N   0  0  0  0  0  0  0  0  0  0  0  0
   -0.3674  -10.6149   15.6326 C   0  0  0  0  0  0  0  0  0  0  0  0
    9.9324   -5.6937   18.3700 C   0  0  0  0  0  0  0  0  0  0  0  0
    8.3547   -1.9923   25.5994 N   0  0  0  0  0  0  0  0  0  0  0  0
    3.3400  -10.8015   18.6983 C   0  0  0  0  0  0  0  0  0  0  0  0
   -0.8921  -11.8064   15.4746 C   0  0  0  0  0  0  0  0  0  0  0  0
    3.1444   -9.1899   17.0749 C   0  0  0  0  0  0  0  0  0  0  0  0
   -1.5943  -11.4515   13.3038 C   0  0  0  0  0  0  0  0  0  0  0  0
    9.6960   -2.3621   25.1642 N   0  0  0  0  0  0  0  0  0  0  0  0
    0.7829  -11.7806   18.3724 N   0  0  0  0  0  0  0  0  0  0  0  0
    4.4320   -9.1370   17.7534 C   0  0  0  0  0  0  0  0  0  0  0  0
   -1.4466  -12.3015   14.3560 C   0  0  0  0  0  0  0  0  0  0  0  0
    2.4346  -10.2641   17.7621 C   0  0  0  0  0  0  0  0  0  0  0  0
   10.0678   -3.7231   16.4898 C   0  0  0  0  0  0  0  0  0  0  0  0
    7.7638   -7.5624   18.4371 C   0  0  0  0  0  0  0  0  0  0  0  0
    4.4605  -10.2007   18.6883 N   0  0  0  0  0  0  0  0  0  0  0  0
    6.6970   -8.4261   18.5360 C   0  0  0  0  0  0  0  0  0  0  0  0
   11.0315   -4.7482   18.4056 C   0  0  0  0  0  0  0  0  0  0  0  0
   -0.4974   -9.7419   14.4967 C   0  0  0  0  0  0  0  0  0  0  0  0
    6.6533   -6.5334   16.6570 C   0  0  0  0  0  0  0  0  0  0  0  0
    7.7936   -6.5419   17.4586 C   0  0  0  0  0  0  0  0  0  0  0  0
    5.6073   -7.2698   16.6960 C   0  0  0  0  0  0  0  0  0  0  0  0
   11.0989   -3.7855   17.5785 C   0  0  0  0  0  0  0  0  0  0  0  0
    2.6613   -8.4734   16.1465 N   0  0  0  0  0  0  0  0  0  0  0  0
    7.9797   -2.9076   26.6505 N   0  0  0  0  0  0  0  0  0  0  0  0
    9.0200   -4.6917   16.4932 C   0  0  0  0  0  0  0  0  0  0  0  0
    1.6706  -12.3180   19.3248 C   0  0  0  0  0  0  0  0  0  0  0  0
    1.2321  -10.7489   17.6044 C   0  0  0  0  0  0  0  0  0  0  0  0
   -1.1438  -10.1798   13.2438 C   0  0  0  0  0  0  0  0  0  0  0  0
  1 10  4  0
  1 32  4  0
  2  8  4  0
  2 26  1  0
  2 31  4  0
  3  7  1  0
  3 33  1  0
  4  6  4  0
  4 14  4  0
  4 28  2  0
  5 22  4  0
  5 27  4  0
  5 31  2  0
  6  8  3  0
  6 27  4  0
  6 30  4  0
  7 11  4  0
  7 19  1  0
  7 24  4  0
  8 15  3  0
  8 23  4  0
  9 14  4  0
  9 22  1  0
  9 30  4  0
 10 18  4  0
 10 21  4  0
 11 17  4  0
 12 16  4  0
 12 18  4  0
 12 23  4  0
 12 29  1  0
 13 17  4  0
 13 24  3  0
 13 34  4  0
 15 24  1  0
 15 32  4  0
 15 33  4  0
 16 21  4  0
 18 33  4  0
 19 28  4  0
 19 31  4  0
 20 22  4  0
 20 26  4  0
 23 28  4  0
 23 34  2  0
 24 34  4  0
 25 26  4  0
 25 27  4  0
 25 29  4  0
M  END
$$$$

 Created by Python create_sdf_string function

 34 38  0  0  0  0  0  0  0  0999 V2000
    2.8751  -11.8271   19.4600 N   0  0  0  0  0  0  0  0  0  0  0  0
    8.9475   -5.6494   17.4566 C   0  0  0  0  0  0  0  0  0  0  0  0
    0.3346  -10.1957   16.7169 N   0  0  0  0  0  0  0  0  0  0  0  0
   10.1189   -3.4576   26.0038 N   0  0  0  0  0  0  0  0  0  0  0  0
    5.5723   -8.2930   17.6547 C   0  0  0  0  0  0  0  0  0  0  0  0
    9.0434   -3.7680   26.8979 N   0  0  0  0  0  0  0  0  0  0  0  0
   -0.3646  -10.6154   15.5675 C   0  0  0  0  0  0  0  0  0  0  0  0
    9.9744   -5.6978   18.4029 C   0  0  0  0  0  0  0  0  0  0  0  0
    8.3376   -1.9707   25.5766 N   0  0  0  0  0  0  0  0  0  0  0  0
    3.2935  -10.8010   18.6869 C   0  0  0  0  0  0  0  0  0  0  0  0
   -0.8960  -11.8625   15.4854 C   0  0  0  0  0  0  0  0  0  0  0  0
    3.1318   -9.2367   17.1418 C   0  0  0  0  0  0  0  0  0  0  0  0
   -1.6034  -11.4633   13.2881 C   0  0  0  0  0  0  0  0  0  0  0  0
    9.6857   -2.3516   25.1582 N   0  0  0  0  0  0  0  0  0  0  0  0
    0.8091  -11.7867   18.3891 N   0  0  0  0  0  0  0  0  0  0  0  0
    4.4325   -9.1798   17.7842 C   0  0  0  0  0  0  0  0  0  0  0  0
   -1.4917  -12.3138   14.3545 C   0  0  0  0  0  0  0  0  0  0  0  0
    2.4340  -10.2538   17.7470 C   0  0  0  0  0  0  0  0  0  0  0  0
   10.0869   -3.7219   16.5003 C   0  0  0  0  0  0  0  0  0  0  0  0
    7.7164   -7.6006   18.4079 C   0  0  0  0  0  0  0  0  0  0  0  0
    4.4912  -10.1705   18.6959 N   0  0  0  0  0  0  0  0  0  0  0  0
    6.6538   -8.4260   18.5000 C   0  0  0  0  0  0  0  0  0  0  0  0
   11.0064   -4.7814   18.4303 C   0  0  0  0  0  0  0  0  0  0  0  0
   -0.5126   -9.7627   14.5047 C   0  0  0  0  0  0  0  0  0  0  0  0
    6.6618   -6.5028   16.6223 C   0  0  0  0  0  0  0  0  0  0  0  0
    7.7836   -6.5727   17.4817 C   0  0  0  0  0  0  0  0  0  0  0  0
    5.6061   -7.3057   16.7090 C   0  0  0  0  0  0  0  0  0  0  0  0
   11.0422   -3.7904   17.4952 C   0  0  0  0  0  0  0  0  0  0  0  0
    2.6540   -8.5101   16.1720 N   0  0  0  0  0  0  0  0  0  0  0  0
    7.9489   -2.8780   26.6355 N   0  0  0  0  0  0  0  0  0  0  0  0
    9.0480   -4.6604   16.4874 C   0  0  0  0  0  0  0  0  0  0  0  0
    1.6551  -12.2855   19.3005 C   0  0  0  0  0  0  0  0  0  0  0  0
    1.2034  -10.7522   17.6081 C   0  0  0  0  0  0  0  0  0  0  0  0
   -1.1257  -10.1668   13.3199 C   0  0  0  0  0  0  0  0  0  0  0  0
  1 10  4  0
  1 32  4  0
  2  8  4  0
  2 26  1  0
  2 31  4  0
  3  7  1  0
  3 33  1  0
  4  6  4  0
  4 14  4  0
  5 16  1  0
  5 22  4  0
  5 27  4  0
  6 30  4  0
  7 11  4  0
  7 24  4  0
  8 23  4  0
  9 14  4  0
  9 30  4  0
 10 18  4  0
 10 21  4  0
 11 17  4  0
 12 16  4  0
 12 18  4  0
 12 29  1  0
 13 17  4  0
 13 34  4  0
 15 32  4  0
 15 33  4  0
 16 21  4  0
 18 33  4  0
 19 28  4  0
 19 31  4  0
 20 22  4  0
 20 26  4  0
 23 28  4  0
 24 34  4  0
 25 26  4  0
 25 27  4  0
M  END
$$$$

 Created by Python create_sdf_string function

 34 46  0  0  0  0  0  0  0  0999 V2000
    2.8646  -11.9018   19.4499 N   0  0  0  0  0  0  0  0  0  0  0  0
    8.9819   -5.7071   17.4729 C   0  0  0  0  0  0  0  0  0  0  0  0
    0.3398  -10.1855   16.6805 N   0  0  0  0  0  0  0  0  0  0  0  0
   10.1510   -3.4412   26.0721 N   0  0  0  0  0  0  0  0  0  0  0  0
    5.5391   -8.2390   17.6318 C   0  0  0  0  0  0  0  0  0  0  0  0
    9.0436   -3.7626   26.8687 N   0  0  0  0  0  0  0  0  0  0  0  0
   -0.4262  -10.6076   15.5974 C   0  0  0  0  0  0  0  0  0  0  0  0
    9.9588   -5.6399   18.3928 C   0  0  0  0  0  0  0  0  0  0  0  0
    8.3238   -1.9626   25.5378 N   0  0  0  0  0  0  0  0  0  0  0  0
    3.2170  -10.7711   18.6703 C   0  0  0  0  0  0  0  0  0  0  0  0
   -0.9405  -11.8848   15.4519 C   0  0  0  0  0  0  0  0  0  0  0  0
    3.1226   -9.2053   17.1899 C   0  0  0  0  0  0  0  0  0  0  0  0
   -1.6284  -11.4848   13.2777 C   0  0  0  0  0  0  0  0  0  0  0  0
    9.6887   -2.3577   25.1776 N   0  0  0  0  0  0  0  0  0  0  0  0
    0.8164  -11.7460   18.4041 N   0  0  0  0  0  0  0  0  0  0  0  0
    4.4491   -9.1898   17.7746 C   0  0  0  0  0  0  0  0  0  0  0  0
   -1.5408  -12.3433   14.3590 C   0  0  0  0  0  0  0  0  0  0  0  0
    2.4316  -10.3262   17.7540 C   0  0  0  0  0  0  0  0  0  0  0  0
   10.0869   -3.7309   16.5024 C   0  0  0  0  0  0  0  0  0  0  0  0
    7.7037   -7.4982   18.3852 C   0  0  0  0  0  0  0  0  0  0  0  0
    4.4937  -10.1593   18.6982 N   0  0  0  0  0  0  0  0  0  0  0  0
    6.6075   -8.4125   18.5015 C   0  0  0  0  0  0  0  0  0  0  0  0
   10.9661   -4.7860   18.3454 C   0  0  0  0  0  0  0  0  0  0  0  0
   -0.5684   -9.7343   14.5548 C   0  0  0  0  0  0  0  0  0  0  0  0
    6.6707   -6.5588   16.6046 C   0  0  0  0  0  0  0  0  0  0  0  0
    7.7790   -6.5046   17.5347 C   0  0  0  0  0  0  0  0  0  0  0  0
    5.5988   -7.2724   16.7288 C   0  0  0  0  0  0  0  0  0  0  0  0
   11.0399   -3.8155   17.4879 C   0  0  0  0  0  0  0  0  0  0  0  0
    2.6958   -8.4532   16.2631 N   0  0  0  0  0  0  0  0  0  0  0  0
    7.9788   -2.8861   26.5969 N   0  0  0  0  0  0  0  0  0  0  0  0
    9.0598   -4.6402   16.4665 C   0  0  0  0  0  0  0  0  0  0  0  0
    1.6788  -12.2802   19.2861 C   0  0  0  0  0  0  0  0  0  0  0  0
    1.2092  -10.7274   17.7014 C   0  0  0  0  0  0  0  0  0  0  0  0
   -1.1185  -10.1520   13.2849 C   0  0  0  0  0  0  0  0  0  0  0  0
  1 10  4  0
  1 32  4  0
  2  8  4  0
  2 11  2  0
  2 26  1  0
  2 31  4  0
  3  7  1  0
  3  8  2  0
  3 17  2  0
  3 33  1  0
  4  6  4  0
  4 14  4  0
  5 16  1  0
  5 22  4  0
  5 27  4  0
  6 30  4  0
  7 11  4  0
  7 24  4  0
  8 23  4  0
  9 14  4  0
  9 30  4  0
 10 18  4  0
 10 21  4  0
 11 17  4  0
 12 16  4  0
 12 18  4  0
 12 29  1  0
 12 31  1  0
 12 33  4  0
 13 17  4  0
 13 34  4  0
 15 32  4  0
 15 33  4  0
 16 18  1  0
 16 21  4  0
 16 29  3  0
 18 33  4  0
 19 20  1  0
 19 28  4  0
 19 31  4  0
 20 22  4  0
 20 26  4  0
 23 28  4  0
 24 34  4  0
 25 26  4  0
 25 27  4  0
M  END
$$$$

 Created by Python create_sdf_string function

 34 38  0  0  0  0  0  0  0  0999 V2000
    2.8736  -11.8621   19.4504 N   0  0  0  0  0  0  0  0  0  0  0  0
    8.9409   -5.6247   17.4462 C   0  0  0  0  0  0  0  0  0  0  0  0
    0.3289  -10.2057   16.7088 N   0  0  0  0  0  0  0  0  0  0  0  0
   10.1374   -3.4193   26.0357 N   0  0  0  0  0  0  0  0  0  0  0  0
    5.5323   -8.2856   17.6542 C   0  0  0  0  0  0  0  0  0  0  0  0
    9.0389   -3.7628   26.8763 N   0  0  0  0  0  0  0  0  0  0  0  0
   -0.4059  -10.6302   15.5652 C   0  0  0  0  0  0  0  0  0  0  0  0
    9.9609   -5.6721   18.3991 C   0  0  0  0  0  0  0  0  0  0  0  0
    8.3346   -1.9624   25.5271 N   0  0  0  0  0  0  0  0  0  0  0  0
    3.2783  -10.8188   18.6973 C   0  0  0  0  0  0  0  0  0  0  0  0
   -0.9431  -11.8849   15.4721 C   0  0  0  0  0  0  0  0  0  0  0  0
    3.1085   -9.2324   17.1823 C   0  0  0  0  0  0  0  0  0  0  0  0
   -1.6409  -11.4775   13.2625 C   0  0  0  0  0  0  0  0  0  0  0  0
    9.6959   -2.3371   25.1584 N   0  0  0  0  0  0  0  0  0  0  0  0
    0.8078  -11.7625   18.3958 N   0  0  0  0  0  0  0  0  0  0  0  0
    4.3981   -9.1881   17.8042 C   0  0  0  0  0  0  0  0  0  0  0  0
   -1.5583  -12.3314   14.3359 C   0  0  0  0  0  0  0  0  0  0  0  0
    2.4105  -10.2487   17.7770 C   0  0  0  0  0  0  0  0  0  0  0  0
   10.0915   -3.7327   16.4836 C   0  0  0  0  0  0  0  0  0  0  0  0
    7.6706   -7.5733   18.4173 C   0  0  0  0  0  0  0  0  0  0  0  0
    4.4901  -10.1817   18.7061 N   0  0  0  0  0  0  0  0  0  0  0  0
    6.6099   -8.3914   18.4951 C   0  0  0  0  0  0  0  0  0  0  0  0
   10.9959   -4.7781   18.3921 C   0  0  0  0  0  0  0  0  0  0  0  0
   -0.5710   -9.7594   14.5215 C   0  0  0  0  0  0  0  0  0  0  0  0
    6.6494   -6.5122   16.6077 C   0  0  0  0  0  0  0  0  0  0  0  0
    7.7804   -6.5510   17.4786 C   0  0  0  0  0  0  0  0  0  0  0  0
    5.5908   -7.3000   16.7050 C   0  0  0  0  0  0  0  0  0  0  0  0
   11.0438   -3.8056   17.4536 C   0  0  0  0  0  0  0  0  0  0  0  0
    2.6677   -8.4715   16.2506 N   0  0  0  0  0  0  0  0  0  0  0  0
    7.9456   -2.8695   26.5843 N   0  0  0  0  0  0  0  0  0  0  0  0
    9.0448   -4.6451   16.4667 C   0  0  0  0  0  0  0  0  0  0  0  0
    1.6482  -12.2861   19.2931 C   0  0  0  0  0  0  0  0  0  0  0  0
    1.1848  -10.7441   17.6145 C   0  0  0  0  0  0  0  0  0  0  0  0
   -1.1495  -10.1738   13.3196 C   0  0  0  0  0  0  0  0  0  0  0  0
  1 10  4  0
  1 32  4  0
  2  8  4  0
  2 26  1  0
  2 31  4  0
  3  7  1  0
  3 33  1  0
  4  6  4  0
  4 14  4  0
  5 16  1  0
  5 22  4  0
  5 27  4  0
  6 30  4  0
  7 11  4  0
  7 24  4  0
  8 23  4  0
  9 14  4  0
  9 30  4  0
 10 18  4  0
 10 21  4  0
 11 17  4  0
 12 16  4  0
 12 18  4  0
 12 29  1  0
 13 17  4  0
 13 34  4  0
 15 32  4  0
 15 33  4  0
 16 21  4  0
 18 33  4  0
 19 28  4  0
 19 31  4  0
 20 22  4  0
 20 26  4  0
 23 28  4  0
 24 34  4  0
 25 26  4  0
 25 27  4  0
M  END
$$$$

 Created by Python create_sdf_string function

 34 41  0  0  0  0  0  0  0  0999 V2000
    2.8970  -11.9250   19.4668 N   0  0  0  0  0  0  0  0  0  0  0  0
    8.9568   -5.5748   17.4059 C   0  0  0  0  0  0  0  0  0  0  0  0
    0.3081  -10.1890   16.7265 N   0  0  0  0  0  0  0  0  0  0  0  0
   10.1048   -3.3952   26.0009 N   0  0  0  0  0  0  0  0  0  0  0  0
    5.4922   -8.3101   17.6790 C   0  0  0  0  0  0  0  0  0  0  0  0
    9.0909   -3.7438   26.8025 N   0  0  0  0  0  0  0  0  0  0  0  0
   -0.3821  -10.6794   15.5576 C   0  0  0  0  0  0  0  0  0  0  0  0
    9.9690   -5.6610   18.4132 C   0  0  0  0  0  0  0  0  0  0  0  0
    8.3485   -1.8924   25.5164 N   0  0  0  0  0  0  0  0  0  0  0  0
    3.3162  -10.8694   18.6574 C   0  0  0  0  0  0  0  0  0  0  0  0
   -0.9082  -11.9027   15.4462 C   0  0  0  0  0  0  0  0  0  0  0  0
    3.1106   -9.2108   17.1324 C   0  0  0  0  0  0  0  0  0  0  0  0
   -1.6571  -11.4980   13.2373 C   0  0  0  0  0  0  0  0  0  0  0  0
    9.7009   -2.3633   25.1895 N   0  0  0  0  0  0  0  0  0  0  0  0
    0.7963  -11.7361   18.3673 N   0  0  0  0  0  0  0  0  0  0  0  0
    4.4349   -9.1543   17.8206 C   0  0  0  0  0  0  0  0  0  0  0  0
   -1.5902  -12.3405   14.3321 C   0  0  0  0  0  0  0  0  0  0  0  0
    2.4906  -10.3046   17.8580 C   0  0  0  0  0  0  0  0  0  0  0  0
   10.0297   -3.7063   16.4487 C   0  0  0  0  0  0  0  0  0  0  0  0
    7.6587   -7.5738   18.3875 C   0  0  0  0  0  0  0  0  0  0  0  0
    4.4659  -10.1537   18.6910 N   0  0  0  0  0  0  0  0  0  0  0  0
    6.5670   -8.3810   18.5051 C   0  0  0  0  0  0  0  0  0  0  0  0
   11.0109   -4.7697   18.4167 C   0  0  0  0  0  0  0  0  0  0  0  0
   -0.6420   -9.7410   14.5553 C   0  0  0  0  0  0  0  0  0  0  0  0
    6.6522   -6.4865   16.6138 C   0  0  0  0  0  0  0  0  0  0  0  0
    7.7659   -6.5644   17.4373 C   0  0  0  0  0  0  0  0  0  0  0  0
    5.5688   -7.2989   16.7372 C   0  0  0  0  0  0  0  0  0  0  0  0
   11.0584   -3.8262   17.4688 C   0  0  0  0  0  0  0  0  0  0  0  0
    2.6366   -8.4768   16.2632 N   0  0  0  0  0  0  0  0  0  0  0  0
    7.9729   -2.8784   26.5827 N   0  0  0  0  0  0  0  0  0  0  0  0
    8.9885   -4.5495   16.4549 C   0  0  0  0  0  0  0  0  0  0  0  0
    1.6509  -12.3177   19.3277 C   0  0  0  0  0  0  0  0  0  0  0  0
    1.2070  -10.7741   17.6039 C   0  0  0  0  0  0  0  0  0  0  0  0
   -1.1898  -10.1816   13.3746 C   0  0  0  0  0  0  0  0  0  0  0  0
  1 10  4  0
  1 32  4  0
  2  8  4  0
  2 26  1  0
  2 31  4  0
  3  7  1  0
  3 33  1  0
  4  6  4  0
  4 14  4  0
  5 16  1  0
  5 22  4  0
  5 27  4  0
  6 30  4  0
  7 11  4  0
  7 24  4  0
  8 23  4  0
  9 14  4  0
  9 30  1  0
 10 18  4  0
 10 21  4  0
 11 17  4  0
 11 19  2  0
 12 16  4  0
 12 18  4  0
 12 29  1  0
 13 17  4  0
 13 21  2  0
 13 34  4  0
 15 32  4  0
 15 33  4  0
 16 21  4  0
 18 33  4  0
 19 28  4  0
 19 31  4  0
 20 22  4  0
 20 26  4  0
 23 28  4  0
 23 30  1  0
 24 34  4  0
 25 26  4  0
 25 27  4  0
M  END
$$$$

 Created by Python create_sdf_string function

 34 38  0  0  0  0  0  0  0  0999 V2000
    2.8870  -11.9052   19.4565 N   0  0  0  0  0  0  0  0  0  0  0  0
    8.9227   -5.5978   17.4305 C   0  0  0  0  0  0  0  0  0  0  0  0
    0.3530  -10.2264   16.6983 N   0  0  0  0  0  0  0  0  0  0  0  0
   10.1210   -3.3985   25.9849 N   0  0  0  0  0  0  0  0  0  0  0  0
    5.4974   -8.2906   17.6642 C   0  0  0  0  0  0  0  0  0  0  0  0
    9.0500   -3.7510   26.8291 N   0  0  0  0  0  0  0  0  0  0  0  0
   -0.4058  -10.6594   15.5527 C   0  0  0  0  0  0  0  0  0  0  0  0
    9.9475   -5.6621   18.3803 C   0  0  0  0  0  0  0  0  0  0  0  0
    8.3444   -1.9061   25.5204 N   0  0  0  0  0  0  0  0  0  0  0  0
    3.2977  -10.8482   18.6982 C   0  0  0  0  0  0  0  0  0  0  0  0
   -0.9281  -11.9194   15.4376 C   0  0  0  0  0  0  0  0  0  0  0  0
    3.0983   -9.2435   17.1876 C   0  0  0  0  0  0  0  0  0  0  0  0
   -1.6731  -11.4761   13.2511 C   0  0  0  0  0  0  0  0  0  0  0  0
    9.6994   -2.3106   25.1415 N   0  0  0  0  0  0  0  0  0  0  0  0
    0.8149  -11.7687   18.3896 N   0  0  0  0  0  0  0  0  0  0  0  0
    4.3755   -9.1939   17.8134 C   0  0  0  0  0  0  0  0  0  0  0  0
   -1.5805  -12.3434   14.3221 C   0  0  0  0  0  0  0  0  0  0  0  0
    2.4359  -10.2767   17.7667 C   0  0  0  0  0  0  0  0  0  0  0  0
   10.0638   -3.6919   16.4641 C   0  0  0  0  0  0  0  0  0  0  0  0
    7.6440   -7.5940   18.3900 C   0  0  0  0  0  0  0  0  0  0  0  0
    4.4867  -10.1930   18.7093 N   0  0  0  0  0  0  0  0  0  0  0  0
    6.5846   -8.3893   18.4929 C   0  0  0  0  0  0  0  0  0  0  0  0
   10.9920   -4.7816   18.4017 C   0  0  0  0  0  0  0  0  0  0  0  0
   -0.6352   -9.7794   14.5328 C   0  0  0  0  0  0  0  0  0  0  0  0
    6.6143   -6.4959   16.5951 C   0  0  0  0  0  0  0  0  0  0  0  0
    7.7566   -6.5426   17.4629 C   0  0  0  0  0  0  0  0  0  0  0  0
    5.5512   -7.3100   16.7175 C   0  0  0  0  0  0  0  0  0  0  0  0
   11.0460   -3.8007   17.4368 C   0  0  0  0  0  0  0  0  0  0  0  0
    2.6150   -8.5024   16.2648 N   0  0  0  0  0  0  0  0  0  0  0  0
    7.9354   -2.8568   26.5760 N   0  0  0  0  0  0  0  0  0  0  0  0
    8.9984   -4.5899   16.4731 C   0  0  0  0  0  0  0  0  0  0  0  0
    1.6487  -12.3083   19.3011 C   0  0  0  0  0  0  0  0  0  0  0  0
    1.2101  -10.7643   17.6098 C   0  0  0  0  0  0  0  0  0  0  0  0
   -1.2159  -10.1811   13.3626 C   0  0  0  0  0  0  0  0  0  0  0  0
  1 10  4  0
  1 32  4  0
  2  8  4  0
  2 26  1  0
  2 31  4  0
  3  7  1  0
  3 33  1  0
  4  6  4  0
  4 14  4  0
  5 16  1  0
  5 22  4  0
  5 27  4  0
  6 30  4  0
  7 11  4  0
  7 24  4  0
  8 23  4  0
  9 14  4  0
  9 30  4  0
 10 18  4  0
 10 21  4  0
 11 17  4  0
 12 16  4  0
 12 18  4  0
 12 29  1  0
 13 17  4  0
 13 34  4  0
 15 32  4  0
 15 33  4  0
 16 21  4  0
 18 33  4  0
 19 28  4  0
 19 31  4  0
 20 22  4  0
 20 26  4  0
 23 28  4  0
 24 34  4  0
 25 26  4  0
 25 27  4  0
M  END
$$$$

 Created by Python create_sdf_string function

 34 45  0  0  0  0  0  0  0  0999 V2000
    2.9041  -11.8902   19.4807 N   0  0  0  0  0  0  0  0  0  0  0  0
    8.9745   -5.5684   17.4126 C   0  0  0  0  0  0  0  0  0  0  0  0
    0.3534  -10.2531   16.7036 N   0  0  0  0  0  0  0  0  0  0  0  0
   10.0786   -3.3796   25.9932 N   0  0  0  0  0  0  0  0  0  0  0  0
    5.4784   -8.3201   17.6533 C   0  0  0  0  0  0  0  0  0  0  0  0
    9.0259   -3.7372   26.8204 N   0  0  0  0  0  0  0  0  0  0  0  0
   -0.3620  -10.6222   15.5781 C   0  0  0  0  0  0  0  0  0  0  0  0
    9.9689   -5.7046   18.3574 C   0  0  0  0  0  0  0  0  0  0  0  0
    8.3710   -1.9019   25.5200 N   0  0  0  0  0  0  0  0  0  0  0  0
    3.3104  -10.8428   18.6959 C   0  0  0  0  0  0  0  0  0  0  0  0
   -0.9436  -11.9244   15.4532 C   0  0  0  0  0  0  0  0  0  0  0  0
    3.0764   -9.2576   17.2152 C   0  0  0  0  0  0  0  0  0  0  0  0
   -1.6619  -11.5610   13.2862 C   0  0  0  0  0  0  0  0  0  0  0  0
    9.6925   -2.2945   25.1736 N   0  0  0  0  0  0  0  0  0  0  0  0
    0.8305  -11.7586   18.3785 N   0  0  0  0  0  0  0  0  0  0  0  0
    4.3547   -9.1750   17.8396 C   0  0  0  0  0  0  0  0  0  0  0  0
   -1.6091  -12.2891   14.3065 C   0  0  0  0  0  0  0  0  0  0  0  0
    2.3986  -10.2608   17.8082 C   0  0  0  0  0  0  0  0  0  0  0  0
   10.1042   -3.7014   16.4833 C   0  0  0  0  0  0  0  0  0  0  0  0
    7.6244   -7.5649   18.4335 C   0  0  0  0  0  0  0  0  0  0  0  0
    4.5148  -10.2217   18.7090 N   0  0  0  0  0  0  0  0  0  0  0  0
    6.5809   -8.3695   18.4455 C   0  0  0  0  0  0  0  0  0  0  0  0
   10.9845   -4.8299   18.4669 C   0  0  0  0  0  0  0  0  0  0  0  0
   -0.6064   -9.8171   14.5502 C   0  0  0  0  0  0  0  0  0  0  0  0
    6.6257   -6.4878   16.6088 C   0  0  0  0  0  0  0  0  0  0  0  0
    7.7499   -6.5450   17.5161 C   0  0  0  0  0  0  0  0  0  0  0  0
    5.5788   -7.3039   16.7066 C   0  0  0  0  0  0  0  0  0  0  0  0
   11.0475   -3.8521   17.4022 C   0  0  0  0  0  0  0  0  0  0  0  0
    2.6454   -8.5158   16.2469 N   0  0  0  0  0  0  0  0  0  0  0  0
    7.9526   -2.8147   26.5621 N   0  0  0  0  0  0  0  0  0  0  0  0
    9.0130   -4.5840   16.4602 C   0  0  0  0  0  0  0  0  0  0  0  0
    1.6160  -12.3030   19.2835 C   0  0  0  0  0  0  0  0  0  0  0  0
    1.2038  -10.8154   17.5958 C   0  0  0  0  0  0  0  0  0  0  0  0
   -1.1861  -10.1834   13.4146 C   0  0  0  0  0  0  0  0  0  0  0  0
  1 10  4  0
  1 32  4  0
  2  8  4  0
  2 26  1  0
  2 31  4  0
  3  4  4  0
  3  7  1  0
  3  8  3  0
  3 33  1  0
  4  6  4  0
  4 14  4  0
  5 16  1  0
  5 22  4  0
  5 27  4  0
  6 30  4  0
  7 11  4  0
  7 24  4  0
  8 23  4  0
  9 14  4  0
  9 30  4  0
 10 18  4  0
 10 21  4  0
 11 17  4  0
 12 16  4  0
 12 18  4  0
 12 29  1  0
 13 17  4  0
 13 34  4  0
 15 32  4  0
 15 33  4  0
 16 21  4  0
 16 27  1  0
 18 33  4  0
 19 28  4  0
 20 22  4  0
 20 26  4  0
 21 24  3  0
 23 25  3  0
 23 28  4  0
 24 33  4  0
 24 34  4  0
 25 26  4  0
 25 27  4  0
 25 32  4  0
 27 29  2  0
M  END
$$$$

 Created by Python create_sdf_string function

 34 38  0  0  0  0  0  0  0  0999 V2000
    2.8679  -11.8764   19.4663 N   0  0  0  0  0  0  0  0  0  0  0  0
    8.9209   -5.6086   17.4328 C   0  0  0  0  0  0  0  0  0  0  0  0
    0.3497  -10.2598   16.6699 N   0  0  0  0  0  0  0  0  0  0  0  0
   10.0945   -3.3914   25.9815 N   0  0  0  0  0  0  0  0  0  0  0  0
    5.4914   -8.3002   17.6599 C   0  0  0  0  0  0  0  0  0  0  0  0
    8.9994   -3.7331   26.8311 N   0  0  0  0  0  0  0  0  0  0  0  0
   -0.3949  -10.6805   15.5614 C   0  0  0  0  0  0  0  0  0  0  0  0
    9.9457   -5.6963   18.3779 C   0  0  0  0  0  0  0  0  0  0  0  0
    8.3469   -1.8890   25.5222 N   0  0  0  0  0  0  0  0  0  0  0  0
    3.2792  -10.8402   18.7067 C   0  0  0  0  0  0  0  0  0  0  0  0
   -0.9396  -11.9256   15.4725 C   0  0  0  0  0  0  0  0  0  0  0  0
    3.0746   -9.2502   17.2000 C   0  0  0  0  0  0  0  0  0  0  0  0
   -1.6863  -11.4799   13.2786 C   0  0  0  0  0  0  0  0  0  0  0  0
    9.6951   -2.2721   25.1490 N   0  0  0  0  0  0  0  0  0  0  0  0
    0.8122  -11.7929   18.3632 N   0  0  0  0  0  0  0  0  0  0  0  0
    4.3605   -9.2028   17.8168 C   0  0  0  0  0  0  0  0  0  0  0  0
   -1.5929  -12.3415   14.3501 C   0  0  0  0  0  0  0  0  0  0  0  0
    2.4019  -10.2821   17.7749 C   0  0  0  0  0  0  0  0  0  0  0  0
   10.1071   -3.7142   16.4778 C   0  0  0  0  0  0  0  0  0  0  0  0
    7.6231   -7.5821   18.4055 C   0  0  0  0  0  0  0  0  0  0  0  0
    4.4754  -10.2071   18.7236 N   0  0  0  0  0  0  0  0  0  0  0  0
    6.5782   -8.3930   18.4846 C   0  0  0  0  0  0  0  0  0  0  0  0
   11.0112   -4.8110   18.4086 C   0  0  0  0  0  0  0  0  0  0  0  0
   -0.5934   -9.8150   14.5351 C   0  0  0  0  0  0  0  0  0  0  0  0
    6.6033   -6.4970   16.6038 C   0  0  0  0  0  0  0  0  0  0  0  0
    7.7392   -6.5405   17.4726 C   0  0  0  0  0  0  0  0  0  0  0  0
    5.5624   -7.3094   16.7057 C   0  0  0  0  0  0  0  0  0  0  0  0
   11.0731   -3.8413   17.4474 C   0  0  0  0  0  0  0  0  0  0  0  0
    2.6093   -8.5074   16.2528 N   0  0  0  0  0  0  0  0  0  0  0  0
    7.9215   -2.8114   26.5613 N   0  0  0  0  0  0  0  0  0  0  0  0
    9.0233   -4.5996   16.4726 C   0  0  0  0  0  0  0  0  0  0  0  0
    1.6405  -12.3056   19.2907 C   0  0  0  0  0  0  0  0  0  0  0  0
    1.1840  -10.7801   17.5924 C   0  0  0  0  0  0  0  0  0  0  0  0
   -1.2127  -10.1969   13.3718 C   0  0  0  0  0  0  0  0  0  0  0  0
  1 10  4  0
  1 32  4  0
  2  8  4  0
  2 26  1  0
  2 31  4  0
  3  7  1  0
  3 33  1  0
  4  6  4  0
  4 14  4  0
  5 16  1  0
  5 22  4  0
  5 27  4  0
  6 30  4  0
  7 11  4  0
  7 24  4  0
  8 23  4  0
  9 14  4  0
  9 30  4  0
 10 18  4  0
 10 21  4  0
 11 17  4  0
 12 16  4  0
 12 18  4  0
 12 29  1  0
 13 17  4  0
 13 34  4  0
 15 32  4  0
 15 33  4  0
 16 21  4  0
 18 33  4  0
 19 28  4  0
 19 31  4  0
 20 22  4  0
 20 26  4  0
 23 28  4  0
 24 34  4  0
 25 26  4  0
 25 27  4  0
M  END
$$$$

 Created by Python create_sdf_string function

 34 44  0  0  0  0  0  0  0  0999 V2000
    2.9019  -11.8652   19.4534 C   0  0  0  0  0  0  0  0  0  0  0  0
    8.8998   -5.5835   17.4253 C   0  0  0  0  0  0  0  0  0  0  0  0
    0.3598  -10.2605   16.6350 N   0  0  0  0  0  0  0  0  0  0  0  0
   10.1141   -3.4065   25.9751 N   0  0  0  0  0  0  0  0  0  0  0  0
    5.4598   -8.2774   17.6458 C   0  0  0  0  0  0  0  0  0  0  0  0
    9.0393   -3.7044   26.8630 N   0  0  0  0  0  0  0  0  0  0  0  0
   -0.4103  -10.6877   15.5815 C   0  0  0  0  0  0  0  0  0  0  0  0
    9.9277   -5.6702   18.3737 C   0  0  0  0  0  0  0  0  0  0  0  0
    8.3369   -1.8857   25.5571 N   0  0  0  0  0  0  0  0  0  0  0  0
    3.2941  -10.8724   18.7174 C   0  0  0  0  0  0  0  0  0  0  0  0
   -0.9329  -11.9295   15.4041 C   0  0  0  0  0  0  0  0  0  0  0  0
    3.0548   -9.2593   17.2413 C   0  0  0  0  0  0  0  0  0  0  0  0
   -1.7272  -11.4807   13.3263 C   0  0  0  0  0  0  0  0  0  0  0  0
    9.7298   -2.3065   25.1475 N   0  0  0  0  0  0  0  0  0  0  0  0
    0.8304  -11.7587   18.3689 N   0  0  0  0  0  0  0  0  0  0  0  0
    4.3876   -9.1751   17.8167 C   0  0  0  0  0  0  0  0  0  0  0  0
   -1.5472  -12.3287   14.3344 C   0  0  0  0  0  0  0  0  0  0  0  0
    2.4056  -10.2923   17.7672 C   0  0  0  0  0  0  0  0  0  0  0  0
   10.0921   -3.7301   16.4984 C   0  0  0  0  0  0  0  0  0  0  0  0
    7.6402   -7.5771   18.3792 C   0  0  0  0  0  0  0  0  0  0  0  0
    4.4494  -10.1897   18.7178 N   0  0  0  0  0  0  0  0  0  0  0  0
    6.5792   -8.3554   18.4937 C   0  0  0  0  0  0  0  0  0  0  0  0
   10.9982   -4.7845   18.4148 C   0  0  0  0  0  0  0  0  0  0  0  0
   -0.5206   -9.8187   14.5651 C   0  0  0  0  0  0  0  0  0  0  0  0
    6.6400   -6.5346   16.6214 C   0  0  0  0  0  0  0  0  0  0  0  0
    7.7480   -6.5155   17.4860 C   0  0  0  0  0  0  0  0  0  0  0  0
    5.5690   -7.3168   16.6771 C   0  0  0  0  0  0  0  0  0  0  0  0
   11.0792   -3.8577   17.4775 C   0  0  0  0  0  0  0  0  0  0  0  0
    2.6547   -8.4735   16.2682 N   0  0  0  0  0  0  0  0  0  0  0  0
    7.9473   -2.7865   26.5584 N   0  0  0  0  0  0  0  0  0  0  0  0
    9.0036   -4.5743   16.4543 C   0  0  0  0  0  0  0  0  0  0  0  0
    1.6766  -12.2748   19.3010 C   0  0  0  0  0  0  0  0  0  0  0  0
    1.1735  -10.7886   17.6146 C   0  0  0  0  0  0  0  0  0  0  0  0
   -1.2116  -10.2060   13.3548 C   0  0  0  0  0  0  0  0  0  0  0  0
  1 10  4  0
  1 32  4  0
  2  8  4  0
  2 26  1  0
  2 31  4  0
  3  7  1  0
  3 33  1  0
  4  6  4  0
  4 14  4  0
  5 16  1  0
  5 22  4  0
  5 27  4  0
  6 15  2  0
  6 30  4  0
  7 11  4  0
  7 24  4  0
  8 23  4  0
  9 14  4  0
  9 30  4  0
 10 18  4  0
 10 20  4  0
 10 21  4  0
 10 26  3  0
 11 17  4  0
 12 13  3  0
 12 16  4  0
 12 18  4  0
 12 29  1  0
 13 17  4  0
 13 34  4  0
 15 32  4  0
 15 33  4  0
 16 21  4  0
 18 33  4  0
 19 28  4  0
 19 31  4  0
 20 22  4  0
 20 26  4  0
 22 28  2  0
 23 28  4  0
 24 34  4  0
 25 26  4  0
 25 27  4  0
 30 31  2  0
M  END
$$$$

 Created by Python create_sdf_string function

 34 38  0  0  0  0  0  0  0  0999 V2000
    2.9076  -11.8866   19.4818 C   0  0  0  0  0  0  0  0  0  0  0  0
    8.9042   -5.6069   17.4381 C   0  0  0  0  0  0  0  0  0  0  0  0
    0.3549  -10.2789   16.6610 N   0  0  0  0  0  0  0  0  0  0  0  0
   10.1158   -3.4065   25.9696 N   0  0  0  0  0  0  0  0  0  0  0  0
    5.4834   -8.2911   17.6531 C   0  0  0  0  0  0  0  0  0  0  0  0
    9.0267   -3.7034   26.8545 N   0  0  0  0  0  0  0  0  0  0  0  0
   -0.3884  -10.7003   15.5468 C   0  0  0  0  0  0  0  0  0  0  0  0
    9.9236   -5.6698   18.3844 C   0  0  0  0  0  0  0  0  0  0  0  0
    8.3531   -1.8748   25.5290 N   0  0  0  0  0  0  0  0  0  0  0  0
    3.2923  -10.8373   18.7181 C   0  0  0  0  0  0  0  0  0  0  0  0
   -0.9290  -11.9375   15.4440 C   0  0  0  0  0  0  0  0  0  0  0  0
    3.0782   -9.2423   17.2042 C   0  0  0  0  0  0  0  0  0  0  0  0
   -1.7283  -11.4667   13.3073 C   0  0  0  0  0  0  0  0  0  0  0  0
    9.7082   -2.2845   25.1334 N   0  0  0  0  0  0  0  0  0  0  0  0
    0.8171  -11.8000   18.3822 N   0  0  0  0  0  0  0  0  0  0  0  0
    4.3574   -9.1859   17.8159 C   0  0  0  0  0  0  0  0  0  0  0  0
   -1.5812  -12.3512   14.3372 C   0  0  0  0  0  0  0  0  0  0  0  0
    2.4092  -10.2768   17.7790 C   0  0  0  0  0  0  0  0  0  0  0  0
   10.0912   -3.7248   16.4871 C   0  0  0  0  0  0  0  0  0  0  0  0
    7.6257   -7.5758   18.3909 C   0  0  0  0  0  0  0  0  0  0  0  0
    4.4730  -10.1837   18.7210 N   0  0  0  0  0  0  0  0  0  0  0  0
    6.5661   -8.3755   18.4837 C   0  0  0  0  0  0  0  0  0  0  0  0
   10.9841   -4.8134   18.4160 C   0  0  0  0  0  0  0  0  0  0  0  0
   -0.5565   -9.8250   14.5226 C   0  0  0  0  0  0  0  0  0  0  0  0
    6.6124   -6.5084   16.5906 C   0  0  0  0  0  0  0  0  0  0  0  0
    7.7315   -6.5426   17.4617 C   0  0  0  0  0  0  0  0  0  0  0  0
    5.5556   -7.3212   16.6871 C   0  0  0  0  0  0  0  0  0  0  0  0
   11.0600   -3.8438   17.4555 C   0  0  0  0  0  0  0  0  0  0  0  0
    2.6205   -8.4866   16.2763 N   0  0  0  0  0  0  0  0  0  0  0  0
    7.9332   -2.7871   26.5675 N   0  0  0  0  0  0  0  0  0  0  0  0
    9.0119   -4.5960   16.4784 C   0  0  0  0  0  0  0  0  0  0  0  0
    1.6462  -12.3223   19.3156 C   0  0  0  0  0  0  0  0  0  0  0  0
    1.1874  -10.7886   17.5932 C   0  0  0  0  0  0  0  0  0  0  0  0
   -1.2223  -10.1984   13.3677 C   0  0  0  0  0  0  0  0  0  0  0  0
  1 10  4  0
  1 32  4  0
  2  8  4  0
  2 26  1  0
  2 31  4  0
  3  7  1  0
  3 33  1  0
  4  6  4  0
  4 14  4  0
  5 16  1  0
  5 22  4  0
  5 27  4  0
  6 30  4  0
  7 11  4  0
  7 24  4  0
  8 23  4  0
  9 14  4  0
  9 30  4  0
 10 18  4  0
 10 21  4  0
 11 17  4  0
 12 16  4  0
 12 18  4  0
 12 29  1  0
 13 17  4  0
 13 34  4  0
 15 32  4  0
 15 33  4  0
 16 21  4  0
 18 33  4  0
 19 28  4  0
 19 31  4  0
 20 22  4  0
 20 26  4  0
 23 28  4  0
 24 34  4  0
 25 26  4  0
 25 27  4  0
M  END
$$$$

 Created by Python create_sdf_string function

 34 37  0  0  0  0  0  0  0  0999 V2000
    2.8911  -11.8965   19.4590 C   0  0  0  0  0  0  0  0  0  0  0  0
    8.9334   -5.6071   17.4886 C   0  0  0  0  0  0  0  0  0  0  0  0
    0.3421  -10.2892   16.6552 N   0  0  0  0  0  0  0  0  0  0  0  0
    5.5067   -8.2756   17.6219 C   0  0  0  0  0  0  0  0  0  0  0  0
    9.0413   -3.6852   26.8422 N   0  0  0  0  0  0  0  0  0  0  0  0
   -0.3708  -10.7395   15.5097 C   0  0  0  0  0  0  0  0  0  0  0  0
    9.9525   -5.6397   18.3741 C   0  0  0  0  0  0  0  0  0  0  0  0
    8.3366   -1.8299   25.5532 N   0  0  0  0  0  0  0  0  0  0  0  0
    3.3001  -10.8157   18.6969 C   0  0  0  0  0  0  0  0  0  0  0  0
   -0.9104  -11.8909   15.4240 C   0  0  0  0  0  0  0  0  0  0  0  0
    3.0593   -9.2220   17.2010 C   0  0  0  0  0  0  0  0  0  0  0  0
   -1.7289  -11.4420   13.3274 C   0  0  0  0  0  0  0  0  0  0  0  0
    9.6512   -2.2990   25.1128 N   0  0  0  0  0  0  0  0  0  0  0  0
    0.8297  -11.7834   18.4044 N   0  0  0  0  0  0  0  0  0  0  0  0
    4.3225   -9.1818   17.8072 C   0  0  0  0  0  0  0  0  0  0  0  0
   -1.5896  -12.3296   14.3554 C   0  0  0  0  0  0  0  0  0  0  0  0
    2.4166  -10.2674   17.7809 C   0  0  0  0  0  0  0  0  0  0  0  0
   10.0589   -3.7543   16.5213 C   0  0  0  0  0  0  0  0  0  0  0  0
    7.6364   -7.5635   18.4164 C   0  0  0  0  0  0  0  0  0  0  0  0
    4.4685  -10.2129   18.7209 N   0  0  0  0  0  0  0  0  0  0  0  0
    6.5508   -8.3794   18.4870 C   0  0  0  0  0  0  0  0  0  0  0  0
   10.9673   -4.7989   18.3956 C   0  0  0  0  0  0  0  0  0  0  0  0
   -0.5677   -9.8156   14.5456 C   0  0  0  0  0  0  0  0  0  0  0  0
    6.6300   -6.5010   16.5888 C   0  0  0  0  0  0  0  0  0  0  0  0
    7.7387   -6.5265   17.4807 C   0  0  0  0  0  0  0  0  0  0  0  0
    5.5601   -7.3449   16.7023 C   0  0  0  0  0  0  0  0  0  0  0  0
   11.0571   -3.8000   17.4180 C   0  0  0  0  0  0  0  0  0  0  0  0
    2.6169   -8.4768   16.2531 N   0  0  0  0  0  0  0  0  0  0  0  0
    7.9582   -2.7961   26.5739 N   0  0  0  0  0  0  0  0  0  0  0  0
    9.0113   -4.6019   16.4583 C   0  0  0  0  0  0  0  0  0  0  0  0
    1.6510  -12.3593   19.2934 C   0  0  0  0  0  0  0  0  0  0  0  0
    1.2067  -10.8099   17.5747 C   0  0  0  0  0  0  0  0  0  0  0  0
   -1.2250  -10.1804   13.3861 C   0  0  0  0  0  0  0  0  0  0  0  0
   10.1104   -3.3915   25.9710 He  0  0  0  0  0  0  0  0  0  0  0  0
  1  9  4  0
  1 31  4  0
  2  7  4  0
  2 25  1  0
  2 28  4  0
  2 30  4  0
  3  6  1  0
  3 32  1  0
  4 15  1  0
  4 21  4  0
  4 26  4  0
  5 29  4  0
  6 10  4  0
  6 23  4  0
  7 22  4  0
  8 13  4  0
  8 29  4  0
  9 17  4  0
  9 20  4  0
 10 16  4  0
 11 15  4  0
 11 17  4  0
 11 28  1  0
 12 16  4  0
 12 33  4  0
 14 31  4  0
 14 32  4  0
 15 20  4  0
 17 32  4  0
 18 27  4  0
 18 30  4  0
 19 21  4  0
 19 25  4  0
 22 27  4  0
 23 33  4  0
 24 25  4  0
 24 26  4  0
M  END
$$$$

 Created by Python create_sdf_string function

 34 38  0  0  0  0  0  0  0  0999 V2000
    2.9077  -11.8965   19.4812 C   0  0  0  0  0  0  0  0  0  0  0  0
    8.9114   -5.6032   17.4460 C   0  0  0  0  0  0  0  0  0  0  0  0
    0.3633  -10.3076   16.6466 N   0  0  0  0  0  0  0  0  0  0  0  0
   10.0791   -3.3660   25.9463 N   0  0  0  0  0  0  0  0  0  0  0  0
    5.4724   -8.3026   17.6524 C   0  0  0  0  0  0  0  0  0  0  0  0
    9.0295   -3.6897   26.8436 N   0  0  0  0  0  0  0  0  0  0  0  0
   -0.3818  -10.7080   15.5232 C   0  0  0  0  0  0  0  0  0  0  0  0
    9.9358   -5.6540   18.3864 C   0  0  0  0  0  0  0  0  0  0  0  0
    8.3424   -1.8482   25.5431 N   0  0  0  0  0  0  0  0  0  0  0  0
    3.2913  -10.8395   18.7192 C   0  0  0  0  0  0  0  0  0  0  0  0
   -0.9283  -11.9355   15.4255 C   0  0  0  0  0  0  0  0  0  0  0  0
    3.0660   -9.2353   17.1970 C   0  0  0  0  0  0  0  0  0  0  0  0
   -1.7477  -11.4491   13.3150 C   0  0  0  0  0  0  0  0  0  0  0  0
    9.6629   -2.2717   25.0924 N   0  0  0  0  0  0  0  0  0  0  0  0
    0.8172  -11.8272   18.3877 N   0  0  0  0  0  0  0  0  0  0  0  0
    4.3420   -9.1904   17.8125 C   0  0  0  0  0  0  0  0  0  0  0  0
   -1.6087  -12.3379   14.3397 C   0  0  0  0  0  0  0  0  0  0  0  0
    2.4120  -10.2833   17.7815 C   0  0  0  0  0  0  0  0  0  0  0  0
   10.0697   -3.7249   16.4833 C   0  0  0  0  0  0  0  0  0  0  0  0
    7.6103   -7.5798   18.4092 C   0  0  0  0  0  0  0  0  0  0  0  0
    4.4682  -10.1863   18.7234 N   0  0  0  0  0  0  0  0  0  0  0  0
    6.5528   -8.3894   18.4862 C   0  0  0  0  0  0  0  0  0  0  0  0
   10.9806   -4.7878   18.3896 C   0  0  0  0  0  0  0  0  0  0  0  0
   -0.5745   -9.8281   14.5174 C   0  0  0  0  0  0  0  0  0  0  0  0
    6.6010   -6.5119   16.5850 C   0  0  0  0  0  0  0  0  0  0  0  0
    7.7367   -6.5388   17.4744 C   0  0  0  0  0  0  0  0  0  0  0  0
    5.5504   -7.3343   16.6888 C   0  0  0  0  0  0  0  0  0  0  0  0
   11.0460   -3.8211   17.4353 C   0  0  0  0  0  0  0  0  0  0  0  0
    2.5907   -8.5017   16.2761 N   0  0  0  0  0  0  0  0  0  0  0  0
    7.9435   -2.7768   26.5726 N   0  0  0  0  0  0  0  0  0  0  0  0
    8.9992   -4.6147   16.4745 C   0  0  0  0  0  0  0  0  0  0  0  0
    1.6519  -12.3626   19.3118 C   0  0  0  0  0  0  0  0  0  0  0  0
    1.1975  -10.8059   17.5993 C   0  0  0  0  0  0  0  0  0  0  0  0
   -1.2449  -10.1874   13.3802 C   0  0  0  0  0  0  0  0  0  0  0  0
  1 10  4  0
  1 32  4  0
  2  8  4  0
  2 26  1  0
  2 31  4  0
  3  7  1  0
  3 33  1  0
  4  6  4  0
  4 14  4  0
  5 16  1  0
  5 22  4  0
  5 27  4  0
  6 30  4  0
  7 11  4  0
  7 24  4  0
  8 23  4  0
  9 14  4  0
  9 30  4  0
 10 18  4  0
 10 21  4  0
 11 17  4  0
 12 16  4  0
 12 18  4  0
 12 29  1  0
 13 17  4  0
 13 34  4  0
 15 32  4  0
 15 33  4  0
 16 21  4  0
 18 33  4  0
 19 28  4  0
 19 31  4  0
 20 22  4  0
 20 26  4  0
 23 28  4  0
 24 34  4  0
 25 26  4  0
 25 27  4  0
M  END
$$$$

 Created by Python create_sdf_string function

 34 42  0  0  0  0  0  0  0  0999 V2000
    2.9014  -11.8879   19.4940 C   0  0  0  0  0  0  0  0  0  0  0  0
    8.9367   -5.5868   17.4429 C   0  0  0  0  0  0  0  0  0  0  0  0
    0.3323  -10.3176   16.6908 N   0  0  0  0  0  0  0  0  0  0  0  0
   10.0610   -3.3636   25.9197 N   0  0  0  0  0  0  0  0  0  0  0  0
    5.4858   -8.3143   17.6630 C   0  0  0  0  0  0  0  0  0  0  0  0
    9.0314   -3.6980   26.8344 N   0  0  0  0  0  0  0  0  0  0  0  0
   -0.3785  -10.6907   15.5223 C   0  0  0  0  0  0  0  0  0  0  0  0
    9.9537   -5.6529   18.3934 C   0  0  0  0  0  0  0  0  0  0  0  0
    8.3372   -1.8415   25.5738 N   0  0  0  0  0  0  0  0  0  0  0  0
    3.2804  -10.8453   18.7336 C   0  0  0  0  0  0  0  0  0  0  0  0
   -0.9297  -11.9429   15.3991 C   0  0  0  0  0  0  0  0  0  0  0  0
    3.0790   -9.2423   17.2159 C   0  0  0  0  0  0  0  0  0  0  0  0
   -1.7664  -11.4421   13.3342 C   0  0  0  0  0  0  0  0  0  0  0  0
    9.6504   -2.3002   25.0980 N   0  0  0  0  0  0  0  0  0  0  0  0
    0.8192  -11.8196   18.4131 N   0  0  0  0  0  0  0  0  0  0  0  0
    4.3385   -9.1925   17.8248 C   0  0  0  0  0  0  0  0  0  0  0  0
   -1.5974  -12.3638   14.3318 C   0  0  0  0  0  0  0  0  0  0  0  0
    2.4132  -10.2735   17.7799 C   0  0  0  0  0  0  0  0  0  0  0  0
   10.0720   -3.7489   16.4828 C   0  0  0  0  0  0  0  0  0  0  0  0
    7.6133   -7.5761   18.4044 C   0  0  0  0  0  0  0  0  0  0  0  0
    4.4697  -10.1920   18.7083 N   0  0  0  0  0  0  0  0  0  0  0  0
    6.5589   -8.3713   18.4805 C   0  0  0  0  0  0  0  0  0  0  0  0
   10.9574   -4.8163   18.4056 C   0  0  0  0  0  0  0  0  0  0  0  0
   -0.5612   -9.8510   14.5131 C   0  0  0  0  0  0  0  0  0  0  0  0
    6.6110   -6.4995   16.5888 C   0  0  0  0  0  0  0  0  0  0  0  0
    7.7212   -6.5443   17.4564 C   0  0  0  0  0  0  0  0  0  0  0  0
    5.5671   -7.3223   16.6907 C   0  0  0  0  0  0  0  0  0  0  0  0
   11.0815   -3.8169   17.4259 C   0  0  0  0  0  0  0  0  0  0  0  0
    2.5967   -8.5002   16.2488 N   0  0  0  0  0  0  0  0  0  0  0  0
    7.9257   -2.7521   26.5916 N   0  0  0  0  0  0  0  0  0  0  0  0
    8.9717   -4.6170   16.4689 C   0  0  0  0  0  0  0  0  0  0  0  0
    1.6432  -12.3703   19.3014 C   0  0  0  0  0  0  0  0  0  0  0  0
    1.2024  -10.8291   17.5970 C   0  0  0  0  0  0  0  0  0  0  0  0
   -1.2365  -10.1768   13.3954 C   0  0  0  0  0  0  0  0  0  0  0  0
  1 10  4  0
  1 32  4  0
  2  8  4  0
  2 26  1  0
  2 31  4  0
  3  7  1  0
  3 33  1  0
  4  6  4  0
  4 14  4  0
  5 16  1  0
  5 22  4  0
  5 27  4  0
  6 30  4  0
  7 11  4  0
  8 19  4  0
  8 23  4  0
  9 14  4  0
  9 30  4  0
 10 18  4  0
 10 21  4  0
 11 17  4  0
 11 33  4  0
 12 16  4  0
 12 18  4  0
 12 22  1  0
 12 29  1  0
 13 17  4  0
 13 34  4  0
 15 32  4  0
 15 33  4  0
 16 21  4  0
 18 21  3  0
 18 33  4  0
 19 26  3  0
 19 28  4  0
 19 31  4  0
 20 22  4  0
 20 26  4  0
 23 28  4  0
 24 34  4  0
 25 26  4  0
 25 27  4  0
M  END
$$$$

 Created by Python create_sdf_string function

 34 38  0  0  0  0  0  0  0  0999 V2000
    2.8994  -11.9022   19.5090 C   0  0  0  0  0  0  0  0  0  0  0  0
    8.9041   -5.6103   17.4429 C   0  0  0  0  0  0  0  0  0  0  0  0
    0.3560  -10.3342   16.6619 N   0  0  0  0  0  0  0  0  0  0  0  0
   10.0655   -3.3791   25.9177 N   0  0  0  0  0  0  0  0  0  0  0  0
    5.4673   -8.3050   17.6522 C   0  0  0  0  0  0  0  0  0  0  0  0
    9.0094   -3.6844   26.8279 N   0  0  0  0  0  0  0  0  0  0  0  0
   -0.3900  -10.7202   15.5277 C   0  0  0  0  0  0  0  0  0  0  0  0
    9.9286   -5.6683   18.3896 C   0  0  0  0  0  0  0  0  0  0  0  0
    8.3250   -1.8345   25.5562 N   0  0  0  0  0  0  0  0  0  0  0  0
    3.2925  -10.8431   18.7357 C   0  0  0  0  0  0  0  0  0  0  0  0
   -0.9377  -11.9608   15.4168 C   0  0  0  0  0  0  0  0  0  0  0  0
    3.0747   -9.2502   17.2044 C   0  0  0  0  0  0  0  0  0  0  0  0
   -1.7794  -11.4503   13.3086 C   0  0  0  0  0  0  0  0  0  0  0  0
    9.6320   -2.2727   25.0922 N   0  0  0  0  0  0  0  0  0  0  0  0
    0.8126  -11.8518   18.3980 N   0  0  0  0  0  0  0  0  0  0  0  0
    4.3476   -9.1949   17.8179 C   0  0  0  0  0  0  0  0  0  0  0  0
   -1.6202  -12.3576   14.3181 C   0  0  0  0  0  0  0  0  0  0  0  0
    2.4141  -10.2943   17.7941 C   0  0  0  0  0  0  0  0  0  0  0  0
   10.0746   -3.7390   16.4729 C   0  0  0  0  0  0  0  0  0  0  0  0
    7.6062   -7.5851   18.3971 C   0  0  0  0  0  0  0  0  0  0  0  0
    4.4628  -10.1909   18.7325 N   0  0  0  0  0  0  0  0  0  0  0  0
    6.5534   -8.3893   18.4829 C   0  0  0  0  0  0  0  0  0  0  0  0
   10.9791   -4.8065   18.4017 C   0  0  0  0  0  0  0  0  0  0  0  0
   -0.5739   -9.8513   14.5085 C   0  0  0  0  0  0  0  0  0  0  0  0
    6.5822   -6.5145   16.5791 C   0  0  0  0  0  0  0  0  0  0  0  0
    7.7219   -6.5446   17.4627 C   0  0  0  0  0  0  0  0  0  0  0  0
    5.5345   -7.3336   16.6859 C   0  0  0  0  0  0  0  0  0  0  0  0
   11.0607   -3.8339   17.4321 C   0  0  0  0  0  0  0  0  0  0  0  0
    2.5822   -8.5225   16.2728 N   0  0  0  0  0  0  0  0  0  0  0  0
    7.9229   -2.7523   26.5972 N   0  0  0  0  0  0  0  0  0  0  0  0
    8.9961   -4.6209   16.4809 C   0  0  0  0  0  0  0  0  0  0  0  0
    1.6473  -12.3768   19.3300 C   0  0  0  0  0  0  0  0  0  0  0  0
    1.1917  -10.8280   17.6154 C   0  0  0  0  0  0  0  0  0  0  0  0
   -1.2642  -10.1988   13.3785 C   0  0  0  0  0  0  0  0  0  0  0  0
  1 10  4  0
  1 32  4  0
  2  8  4  0
  2 26  1  0
  2 31  4  0
  3  7  1  0
  3 33  1  0
  4  6  4  0
  4 14  4  0
  5 16  1  0
  5 22  4  0
  5 27  4  0
  6 30  4  0
  7 11  4  0
  7 24  4  0
  8 23  4  0
  9 14  4  0
  9 30  4  0
 10 18  4  0
 10 21  4  0
 11 17  4  0
 12 16  4  0
 12 18  4  0
 12 29  1  0
 13 17  4  0
 13 34  4  0
 15 32  4  0
 15 33  4  0
 16 21  4  0
 18 33  4  0
 19 28  4  0
 19 31  4  0
 20 22  4  0
 20 26  4  0
 23 28  4  0
 24 34  4  0
 25 26  4  0
 25 27  4  0
M  END
$$$$

 Created by Python create_sdf_string function

 34 41  0  0  0  0  0  0  0  0999 V2000
    2.9065  -11.8994   19.5165 C   0  0  0  0  0  0  0  0  0  0  0  0
    8.9125   -5.6129   17.4193 C   0  0  0  0  0  0  0  0  0  0  0  0
    0.3453  -10.3416   16.6540 N   0  0  0  0  0  0  0  0  0  0  0  0
   10.0714   -3.3637   25.9209 N   0  0  0  0  0  0  0  0  0  0  0  0
    5.4609   -8.3080   17.6323 C   0  0  0  0  0  0  0  0  0  0  0  0
    9.0013   -3.6915   26.8424 N   0  0  0  0  0  0  0  0  0  0  0  0
   -0.3908  -10.7139   15.5279 C   0  0  0  0  0  0  0  0  0  0  0  0
    9.9313   -5.6850   18.3839 C   0  0  0  0  0  0  0  0  0  0  0  0
    8.3060   -1.8487   25.5505 N   0  0  0  0  0  0  0  0  0  0  0  0
    3.2958  -10.8541   18.7318 C   0  0  0  0  0  0  0  0  0  0  0  0
   -0.9377  -11.9503   15.3960 C   0  0  0  0  0  0  0  0  0  0  0  0
    3.0799   -9.2418   17.1925 C   0  0  0  0  0  0  0  0  0  0  0  0
   -1.7784  -11.4412   13.3098 C   0  0  0  0  0  0  0  0  0  0  0  0
    9.6501   -2.2780   25.0914 N   0  0  0  0  0  0  0  0  0  0  0  0
    0.8259  -11.8724   18.4019 N   0  0  0  0  0  0  0  0  0  0  0  0
    4.3280   -9.1735   17.8017 C   0  0  0  0  0  0  0  0  0  0  0  0
   -1.6234  -12.3509   14.3248 C   0  0  0  0  0  0  0  0  0  0  0  0
    2.4174  -10.2928   17.7964 C   0  0  0  0  0  0  0  0  0  0  0  0
   10.0785   -3.7466   16.4989 C   0  0  0  0  0  0  0  0  0  0  0  0
    7.5966   -7.5847   18.4175 C   0  0  0  0  0  0  0  0  0  0  0  0
    4.4769  -10.1910   18.7381 N   0  0  0  0  0  0  0  0  0  0  0  0
    6.5386   -8.3886   18.4688 C   0  0  0  0  0  0  0  0  0  0  0  0
   11.0038   -4.8383   18.4030 C   0  0  0  0  0  0  0  0  0  0  0  0
   -0.5919   -9.8645   14.5043 C   0  0  0  0  0  0  0  0  0  0  0  0
    6.5748   -6.5193   16.5681 C   0  0  0  0  0  0  0  0  0  0  0  0
    7.7161   -6.5430   17.4629 C   0  0  0  0  0  0  0  0  0  0  0  0
    5.5273   -7.3331   16.6855 C   0  0  0  0  0  0  0  0  0  0  0  0
   11.0775   -3.8491   17.4211 C   0  0  0  0  0  0  0  0  0  0  0  0
    2.5702   -8.5326   16.2948 N   0  0  0  0  0  0  0  0  0  0  0  0
    7.9066   -2.7613   26.5968 N   0  0  0  0  0  0  0  0  0  0  0  0
    8.9854   -4.6253   16.4617 C   0  0  0  0  0  0  0  0  0  0  0  0
    1.6579  -12.3732   19.3196 C   0  0  0  0  0  0  0  0  0  0  0  0
    1.1958  -10.8139   17.6116 C   0  0  0  0  0  0  0  0  0  0  0  0
   -1.2434  -10.1916   13.3832 C   0  0  0  0  0  0  0  0  0  0  0  0
  1 10  4  0
  1 32  4  0
  2  8  4  0
  2 26  1  0
  2 31  4  0
  3  7  1  0
  3 33  1  0
  4  6  4  0
  4 10  1  0
  4 14  4  0
  5 16  1  0
  5 22  4  0
  5 27  4  0
  6 30  4  0
  7 11  4  0
  7 24  4  0
  8 23  4  0
  9 14  4  0
  9 30  4  0
 10 18  4  0
 10 21  4  0
 11 17  4  0
 12 16  4  0
 12 18  4  0
 12 29  1  0
 13 17  4  0
 13 34  4  0
 15 32  4  0
 15 33  4  0
 16 21  4  0
 16 30  3  0
 18 33  4  0
 19 28  4  0
 19 31  4  0
 20 22  4  0
 20 26  4  0
 23 28  4  0
 24 34  4  0
 25 26  4  0
 25 27  4  0
 28 32  1  0
M  END
$$$$

 Created by Python create_sdf_string function

 34 38  0  0  0  0  0  0  0  0999 V2000
    2.9130  -11.8990   19.5199 C   0  0  0  0  0  0  0  0  0  0  0  0
    8.9013   -5.6236   17.4349 C   0  0  0  0  0  0  0  0  0  0  0  0
    0.3649  -10.3541   16.6446 N   0  0  0  0  0  0  0  0  0  0  0  0
   10.0634   -3.3756   25.9217 N   0  0  0  0  0  0  0  0  0  0  0  0
    5.4512   -8.3083   17.6441 C   0  0  0  0  0  0  0  0  0  0  0  0
    8.9975   -3.6922   26.8383 N   0  0  0  0  0  0  0  0  0  0  0  0
   -0.3957  -10.7331   15.5239 C   0  0  0  0  0  0  0  0  0  0  0  0
    9.9255   -5.6861   18.3719 C   0  0  0  0  0  0  0  0  0  0  0  0
    8.3024   -1.8412   25.5356 N   0  0  0  0  0  0  0  0  0  0  0  0
    3.2950  -10.8432   18.7417 C   0  0  0  0  0  0  0  0  0  0  0  0
   -0.9466  -11.9667   15.4146 C   0  0  0  0  0  0  0  0  0  0  0  0
    3.0638   -9.2587   17.2012 C   0  0  0  0  0  0  0  0  0  0  0  0
   -1.7879  -11.4505   13.3039 C   0  0  0  0  0  0  0  0  0  0  0  0
    9.6292   -2.2594   25.0878 N   0  0  0  0  0  0  0  0  0  0  0  0
    0.8251  -11.8710   18.3920 N   0  0  0  0  0  0  0  0  0  0  0  0
    4.3359   -9.1983   17.8134 C   0  0  0  0  0  0  0  0  0  0  0  0
   -1.6391  -12.3515   14.3156 C   0  0  0  0  0  0  0  0  0  0  0  0
    2.4101  -10.3041   17.7943 C   0  0  0  0  0  0  0  0  0  0  0  0
   10.0733   -3.7420   16.4758 C   0  0  0  0  0  0  0  0  0  0  0  0
    7.5856   -7.5888   18.3949 C   0  0  0  0  0  0  0  0  0  0  0  0
    4.4726  -10.1829   18.7424 N   0  0  0  0  0  0  0  0  0  0  0  0
    6.5345   -8.3957   18.4727 C   0  0  0  0  0  0  0  0  0  0  0  0
   10.9970   -4.8487   18.4033 C   0  0  0  0  0  0  0  0  0  0  0  0
   -0.5868   -9.8598   14.5099 C   0  0  0  0  0  0  0  0  0  0  0  0
    6.5671   -6.5169   16.5638 C   0  0  0  0  0  0  0  0  0  0  0  0
    7.7076   -6.5500   17.4522 C   0  0  0  0  0  0  0  0  0  0  0  0
    5.5137   -7.3355   16.6767 C   0  0  0  0  0  0  0  0  0  0  0  0
   11.0763   -3.8542   17.4312 C   0  0  0  0  0  0  0  0  0  0  0  0
    2.5467   -8.5454   16.2867 N   0  0  0  0  0  0  0  0  0  0  0  0
    7.9085   -2.7577   26.5903 N   0  0  0  0  0  0  0  0  0  0  0  0
    9.0004   -4.6294   16.4781 C   0  0  0  0  0  0  0  0  0  0  0  0
    1.6580  -12.3820   19.3340 C   0  0  0  0  0  0  0  0  0  0  0  0
    1.1971  -10.8413   17.6059 C   0  0  0  0  0  0  0  0  0  0  0  0
   -1.2653  -10.2029   13.3800 C   0  0  0  0  0  0  0  0  0  0  0  0
  1 10  4  0
  1 32  4  0
  2  8  4  0
  2 26  1  0
  2 31  4  0
  3  7  1  0
  3 33  1  0
  4  6  4  0
  4 14  4  0
  5 16  1  0
  5 22  4  0
  5 27  4  0
  6 30  4  0
  7 11  4  0
  7 24  4  0
  8 23  4  0
  9 14  4  0
  9 30  4  0
 10 18  4  0
 10 21  4  0
 11 17  4  0
 12 16  4  0
 12 18  4  0
 12 29  1  0
 13 17  4  0
 13 34  4  0
 15 32  4  0
 15 33  4  0
 16 21  4  0
 18 33  4  0
 19 28  4  0
 19 31  4  0
 20 22  4  0
 20 26  4  0
 23 28  4  0
 24 34  4  0
 25 26  4  0
 25 27  4  0
M  END
$$$$

 Created by Python create_sdf_string function

 34 40  0  0  0  0  0  0  0  0999 V2000
    2.9076  -11.9028   19.5252 C   0  0  0  0  0  0  0  0  0  0  0  0
    8.8936   -5.6167   17.4289 C   0  0  0  0  0  0  0  0  0  0  0  0
    0.3558  -10.3545   16.6521 N   0  0  0  0  0  0  0  0  0  0  0  0
   10.0589   -3.3744   25.9349 N   0  0  0  0  0  0  0  0  0  0  0  0
    5.4424   -8.3106   17.6503 C   0  0  0  0  0  0  0  0  0  0  0  0
    8.9849   -3.6959   26.8491 N   0  0  0  0  0  0  0  0  0  0  0  0
   -0.3976  -10.7428   15.5207 C   0  0  0  0  0  0  0  0  0  0  0  0
    9.9332   -5.6923   18.3777 C   0  0  0  0  0  0  0  0  0  0  0  0
    8.3144   -1.8407   25.5396 N   0  0  0  0  0  0  0  0  0  0  0  0
    3.2903  -10.8508   18.7365 C   0  0  0  0  0  0  0  0  0  0  0  0
   -0.9487  -11.9639   15.4072 C   0  0  0  0  0  0  0  0  0  0  0  0
    3.0588   -9.2587   17.2061 C   0  0  0  0  0  0  0  0  0  0  0  0
   -1.7798  -11.4481   13.3125 C   0  0  0  0  0  0  0  0  0  0  0  0
    9.6345   -2.2512   25.0782 N   0  0  0  0  0  0  0  0  0  0  0  0
    0.8341  -11.8717   18.3918 N   0  0  0  0  0  0  0  0  0  0  0  0
    4.3391   -9.2011   17.8097 C   0  0  0  0  0  0  0  0  0  0  0  0
   -1.6375  -12.3371   14.3114 C   0  0  0  0  0  0  0  0  0  0  0  0
    2.4218  -10.3012   17.7913 C   0  0  0  0  0  0  0  0  0  0  0  0
   10.0808   -3.7345   16.4712 C   0  0  0  0  0  0  0  0  0  0  0  0
    7.5726   -7.5953   18.4020 C   0  0  0  0  0  0  0  0  0  0  0  0
    4.4720  -10.1811   18.7349 N   0  0  0  0  0  0  0  0  0  0  0  0
    6.5392   -8.4021   18.4583 C   0  0  0  0  0  0  0  0  0  0  0  0
   10.9988   -4.8493   18.4132 C   0  0  0  0  0  0  0  0  0  0  0  0
   -0.6053   -9.8517   14.5066 C   0  0  0  0  0  0  0  0  0  0  0  0
    6.5807   -6.5119   16.5671 C   0  0  0  0  0  0  0  0  0  0  0  0
    7.7142   -6.5436   17.4718 C   0  0  0  0  0  0  0  0  0  0  0  0
    5.5056   -7.3262   16.6815 C   0  0  0  0  0  0  0  0  0  0  0  0
   11.0760   -3.8600   17.4286 C   0  0  0  0  0  0  0  0  0  0  0  0
    2.5426   -8.5435   16.2925 N   0  0  0  0  0  0  0  0  0  0  0  0
    7.9166   -2.7664   26.5896 N   0  0  0  0  0  0  0  0  0  0  0  0
    9.0045   -4.6213   16.4791 C   0  0  0  0  0  0  0  0  0  0  0  0
    1.6650  -12.3757   19.3405 C   0  0  0  0  0  0  0  0  0  0  0  0
    1.1918  -10.8408   17.6193 C   0  0  0  0  0  0  0  0  0  0  0  0
   -1.2524  -10.2080   13.3882 C   0  0  0  0  0  0  0  0  0  0  0  0
  1 10  4  0
  1 32  4  0
  2  8  4  0
  2 26  1  0
  2 31  4  0
  3  7  1  0
  3 33  1  0
  4  6  4  0
  4 14  4  0
  5 16  1  0
  5 22  4  0
  5 27  4  0
  6 30  4  0
  7 11  4  0
  7 24  4  0
  8 23  4  0
  9 14  4  0
  9 30  4  0
 10 14  3  0
 10 18  4  0
 10 21  4  0
 11 17  4  0
 12 16  4  0
 12 18  4  0
 12 29  1  0
 13 17  4  0
 13 34  4  0
 15 32  4  0
 15 33  4  0
 16 21  4  0
 18 33  4  0
 19 28  4  0
 19 31  4  0
 20 22  4  0
 20 26  4  0
 23 28  4  0
 24 34  4  0
 25 26  4  0
 25 27  4  0
 26 34  3  0
M  END
$$$$

 Created by Python create_sdf_string function

 34 38  0  0  0  0  0  0  0  0999 V2000
    2.9121  -11.9029   19.5330 C   0  0  0  0  0  0  0  0  0  0  0  0
    8.8922   -5.6262   17.4345 C   0  0  0  0  0  0  0  0  0  0  0  0
    0.3706  -10.3706   16.6476 N   0  0  0  0  0  0  0  0  0  0  0  0
   10.0555   -3.3776   25.9248 N   0  0  0  0  0  0  0  0  0  0  0  0
    5.4415   -8.3150   17.6447 C   0  0  0  0  0  0  0  0  0  0  0  0
    8.9879   -3.6890   26.8341 N   0  0  0  0  0  0  0  0  0  0  0  0
   -0.3999  -10.7425   15.5245 C   0  0  0  0  0  0  0  0  0  0  0  0
    9.9205   -5.6938   18.3711 C   0  0  0  0  0  0  0  0  0  0  0  0
    8.3053   -1.8373   25.5320 N   0  0  0  0  0  0  0  0  0  0  0  0
    3.2940  -10.8485   18.7487 C   0  0  0  0  0  0  0  0  0  0  0  0
   -0.9560  -11.9738   15.4165 C   0  0  0  0  0  0  0  0  0  0  0  0
    3.0570   -9.2696   17.2070 C   0  0  0  0  0  0  0  0  0  0  0  0
   -1.7921  -11.4559   13.3068 C   0  0  0  0  0  0  0  0  0  0  0  0
    9.6277   -2.2542   25.0869 N   0  0  0  0  0  0  0  0  0  0  0  0
    0.8293  -11.8843   18.3959 N   0  0  0  0  0  0  0  0  0  0  0  0
    4.3303   -9.2039   17.8176 C   0  0  0  0  0  0  0  0  0  0  0  0
   -1.6502  -12.3524   14.3162 C   0  0  0  0  0  0  0  0  0  0  0  0
    2.4097  -10.3158   17.8016 C   0  0  0  0  0  0  0  0  0  0  0  0
   10.0754   -3.7405   16.4659 C   0  0  0  0  0  0  0  0  0  0  0  0
    7.5794   -7.5980   18.3903 C   0  0  0  0  0  0  0  0  0  0  0  0
    4.4696  -10.1887   18.7491 N   0  0  0  0  0  0  0  0  0  0  0  0
    6.5338   -8.4036   18.4666 C   0  0  0  0  0  0  0  0  0  0  0  0
   10.9900   -4.8570   18.4063 C   0  0  0  0  0  0  0  0  0  0  0  0
   -0.5973   -9.8606   14.5150 C   0  0  0  0  0  0  0  0  0  0  0  0
    6.5635   -6.5126   16.5702 C   0  0  0  0  0  0  0  0  0  0  0  0
    7.7046   -6.5530   17.4578 C   0  0  0  0  0  0  0  0  0  0  0  0
    5.5028   -7.3331   16.6839 C   0  0  0  0  0  0  0  0  0  0  0  0
   11.0816   -3.8578   17.4346 C   0  0  0  0  0  0  0  0  0  0  0  0
    2.5282   -8.5631   16.2947 N   0  0  0  0  0  0  0  0  0  0  0  0
    7.9081   -2.7555   26.5818 N   0  0  0  0  0  0  0  0  0  0  0  0
    9.0058   -4.6282   16.4870 C   0  0  0  0  0  0  0  0  0  0  0  0
    1.6577  -12.3889   19.3489 C   0  0  0  0  0  0  0  0  0  0  0  0
    1.2009  -10.8563   17.6129 C   0  0  0  0  0  0  0  0  0  0  0  0
   -1.2717  -10.2075   13.3865 C   0  0  0  0  0  0  0  0  0  0  0  0
  1 10  4  0
  1 32  4  0
  2  8  4  0
  2 26  1  0
  2 31  4  0
  3  7  1  0
  3 33  1  0
  4  6  4  0
  4 14  4  0
  5 16  1  0
  5 22  4  0
  5 27  4  0
  6 30  4  0
  7 11  4  0
  7 24  4  0
  8 23  4  0
  9 14  4  0
  9 30  4  0
 10 18  4  0
 10 21  4  0
 11 17  4  0
 12 16  4  0
 12 18  4  0
 12 29  1  0
 13 17  4  0
 13 34  4  0
 15 32  4  0
 15 33  4  0
 16 21  4  0
 18 33  4  0
 19 28  4  0
 19 31  4  0
 20 22  4  0
 20 26  4  0
 23 28  4  0
 24 34  4  0
 25 26  4  0
 25 27  4  0
M  END
$$$$

 Created by Python create_sdf_string function

 34 38  0  0  0  0  0  0  0  0999 V2000
    2.9116  -11.9033   19.5279 C   0  0  0  0  0  0  0  0  0  0  0  0
    8.8916   -5.6198   17.4374 C   0  0  0  0  0  0  0  0  0  0  0  0
    0.3726  -10.3730   16.6390 N   0  0  0  0  0  0  0  0  0  0  0  0
   10.0585   -3.3743   25.9231 N   0  0  0  0  0  0  0  0  0  0  0  0
    5.4416   -8.3125   17.6412 C   0  0  0  0  0  0  0  0  0  0  0  0
    8.9838   -3.6806   26.8313 N   0  0  0  0  0  0  0  0  0  0  0  0
   -0.3993  -10.7461   15.5233 C   0  0  0  0  0  0  0  0  0  0  0  0
    9.9222   -5.6875   18.3731 C   0  0  0  0  0  0  0  0  0  0  0  0
    8.3079   -1.8344   25.5359 N   0  0  0  0  0  0  0  0  0  0  0  0
    3.2923  -10.8479   18.7482 C   0  0  0  0  0  0  0  0  0  0  0  0
   -0.9613  -11.9706   15.4125 C   0  0  0  0  0  0  0  0  0  0  0  0
    3.0540   -9.2658   17.2045 C   0  0  0  0  0  0  0  0  0  0  0  0
   -1.7913  -11.4579   13.3110 C   0  0  0  0  0  0  0  0  0  0  0  0
    9.6313   -2.2641   25.0913 N   0  0  0  0  0  0  0  0  0  0  0  0
    0.8255  -11.8813   18.3985 N   0  0  0  0  0  0  0  0  0  0  0  0
    4.3296   -9.2068   17.8191 C   0  0  0  0  0  0  0  0  0  0  0  0
   -1.6431  -12.3470   14.3090 C   0  0  0  0  0  0  0  0  0  0  0  0
    2.4103  -10.3151   17.8084 C   0  0  0  0  0  0  0  0  0  0  0  0
   10.0838   -3.7410   16.4759 C   0  0  0  0  0  0  0  0  0  0  0  0
    7.5830   -7.5963   18.3905 C   0  0  0  0  0  0  0  0  0  0  0  0
    4.4698  -10.1866   18.7434 N   0  0  0  0  0  0  0  0  0  0  0  0
    6.5353   -8.4078   18.4633 C   0  0  0  0  0  0  0  0  0  0  0  0
   10.9906   -4.8538   18.4081 C   0  0  0  0  0  0  0  0  0  0  0  0
   -0.6007   -9.8541   14.5107 C   0  0  0  0  0  0  0  0  0  0  0  0
    6.5664   -6.5141   16.5758 C   0  0  0  0  0  0  0  0  0  0  0  0
    7.7039   -6.5558   17.4517 C   0  0  0  0  0  0  0  0  0  0  0  0
    5.4991   -7.3276   16.6909 C   0  0  0  0  0  0  0  0  0  0  0  0
   11.0823   -3.8519   17.4240 C   0  0  0  0  0  0  0  0  0  0  0  0
    2.5257   -8.5697   16.2994 N   0  0  0  0  0  0  0  0  0  0  0  0
    7.9106   -2.7555   26.5790 N   0  0  0  0  0  0  0  0  0  0  0  0
    9.0084   -4.6223   16.4875 C   0  0  0  0  0  0  0  0  0  0  0  0
    1.6548  -12.3862   19.3430 C   0  0  0  0  0  0  0  0  0  0  0  0
    1.2115  -10.8538   17.6058 C   0  0  0  0  0  0  0  0  0  0  0  0
   -1.2743  -10.2097   13.3865 C   0  0  0  0  0  0  0  0  0  0  0  0
  1 10  4  0
  1 32  4  0
  2  8  4  0
  2 26  1  0
  2 31  4  0
  3  7  1  0
  3 33  1  0
  4  6  4  0
  4 14  4  0
  5 16  1  0
  5 22  4  0
  5 27  4  0
  6 30  4  0
  7 11  4  0
  7 24  4  0
  8 23  4  0
  9 14  4  0
  9 30  4  0
 10 18  4  0
 10 21  4  0
 11 17  4  0
 12 16  4  0
 12 18  4  0
 12 29  1  0
 13 17  4  0
 13 34  4  0
 15 32  4  0
 15 33  4  0
 16 21  4  0
 18 33  4  0
 19 28  4  0
 19 31  4  0
 20 22  4  0
 20 26  4  0
 23 28  4  0
 24 34  4  0
 25 26  4  0
 25 27  4  0
M  END
$$$$

 Created by Python create_sdf_string function

 34 38  0  0  0  0  0  0  0  0999 V2000
    2.9080  -11.9111   19.5450 C   0  0  0  0  0  0  0  0  0  0  0  0
    8.8883   -5.6305   17.4356 C   0  0  0  0  0  0  0  0  0  0  0  0
    0.3892  -10.3859   16.6339 N   0  0  0  0  0  0  0  0  0  0  0  0
   10.0520   -3.3759   25.9158 N   0  0  0  0  0  0  0  0  0  0  0  0
    5.4376   -8.3174   17.6465 C   0  0  0  0  0  0  0  0  0  0  0  0
    8.9819   -3.6807   26.8248 N   0  0  0  0  0  0  0  0  0  0  0  0
   -0.4003  -10.7479   15.5212 C   0  0  0  0  0  0  0  0  0  0  0  0
    9.9169   -5.6930   18.3719 C   0  0  0  0  0  0  0  0  0  0  0  0
    8.3051   -1.8315   25.5266 N   0  0  0  0  0  0  0  0  0  0  0  0
    3.2925  -10.8575   18.7624 C   0  0  0  0  0  0  0  0  0  0  0  0
   -0.9685  -11.9782   15.4116 C   0  0  0  0  0  0  0  0  0  0  0  0
    3.0561   -9.2787   17.2127 C   0  0  0  0  0  0  0  0  0  0  0  0
   -1.8025  -11.4544   13.3029 C   0  0  0  0  0  0  0  0  0  0  0  0
    9.6274   -2.2521   25.0824 N   0  0  0  0  0  0  0  0  0  0  0  0
    0.8270  -11.8956   18.3980 N   0  0  0  0  0  0  0  0  0  0  0  0
    4.3283   -9.2091   17.8249 C   0  0  0  0  0  0  0  0  0  0  0  0
   -1.6577  -12.3541   14.3110 C   0  0  0  0  0  0  0  0  0  0  0  0
    2.4114  -10.3282   17.8090 C   0  0  0  0  0  0  0  0  0  0  0  0
   10.0744   -3.7460   16.4688 C   0  0  0  0  0  0  0  0  0  0  0  0
    7.5796   -7.6043   18.3808 C   0  0  0  0  0  0  0  0  0  0  0  0
    4.4665  -10.1924   18.7604 N   0  0  0  0  0  0  0  0  0  0  0  0
    6.5327   -8.4057   18.4591 C   0  0  0  0  0  0  0  0  0  0  0  0
   10.9841   -4.8586   18.4030 C   0  0  0  0  0  0  0  0  0  0  0  0
   -0.6041   -9.8614   14.5051 C   0  0  0  0  0  0  0  0  0  0  0  0
    6.5512   -6.5141   16.5714 C   0  0  0  0  0  0  0  0  0  0  0  0
    7.6997   -6.5549   17.4529 C   0  0  0  0  0  0  0  0  0  0  0  0
    5.4932   -7.3343   16.6889 C   0  0  0  0  0  0  0  0  0  0  0  0
   11.0845   -3.8577   17.4349 C   0  0  0  0  0  0  0  0  0  0  0  0
    2.5123   -8.5876   16.3016 N   0  0  0  0  0  0  0  0  0  0  0  0
    7.9021   -2.7469   26.5739 N   0  0  0  0  0  0  0  0  0  0  0  0
    9.0029   -4.6343   16.4930 C   0  0  0  0  0  0  0  0  0  0  0  0
    1.6535  -12.4002   19.3575 C   0  0  0  0  0  0  0  0  0  0  0  0
    1.2047  -10.8676   17.6101 C   0  0  0  0  0  0  0  0  0  0  0  0
   -1.2872  -10.2049   13.3832 C   0  0  0  0  0  0  0  0  0  0  0  0
  1 10  4  0
  1 32  4  0
  2  8  4  0
  2 26  1  0
  2 31  4  0
  3  7  1  0
  3 33  1  0
  4  6  4  0
  4 14  4  0
  5 16  1  0
  5 22  4  0
  5 27  4  0
  6 30  4  0
  7 11  4  0
  7 24  4  0
  8 23  4  0
  9 14  4  0
  9 30  4  0
 10 18  4  0
 10 21  4  0
 11 17  4  0
 12 16  4  0
 12 18  4  0
 12 29  1  0
 13 17  4  0
 13 34  4  0
 15 32  4  0
 15 33  4  0
 16 21  4  0
 18 33  4  0
 19 28  4  0
 19 31  4  0
 20 22  4  0
 20 26  4  0
 23 28  4  0
 24 34  4  0
 25 26  4  0
 25 27  4  0
M  END
$$$$

 Created by Python create_sdf_string function

 34 38  0  0  0  0  0  0  0  0999 V2000
    2.9080  -11.9111   19.5450 C   0  0  0  0  0  0  0  0  0  0  0  0
    8.8883   -5.6305   17.4356 C   0  0  0  0  0  0  0  0  0  0  0  0
    0.3892  -10.3859   16.6339 N   0  0  0  0  0  0  0  0  0  0  0  0
   10.0520   -3.3759   25.9158 N   0  0  0  0  0  0  0  0  0  0  0  0
    5.4376   -8.3174   17.6465 C   0  0  0  0  0  0  0  0  0  0  0  0
    8.9819   -3.6807   26.8248 N   0  0  0  0  0  0  0  0  0  0  0  0
   -0.4003  -10.7479   15.5212 C   0  0  0  0  0  0  0  0  0  0  0  0
    9.9169   -5.6930   18.3719 C   0  0  0  0  0  0  0  0  0  0  0  0
    8.3051   -1.8315   25.5266 N   0  0  0  0  0  0  0  0  0  0  0  0
    3.2925  -10.8575   18.7624 C   0  0  0  0  0  0  0  0  0  0  0  0
   -0.9685  -11.9782   15.4116 C   0  0  0  0  0  0  0  0  0  0  0  0
    3.0561   -9.2787   17.2127 C   0  0  0  0  0  0  0  0  0  0  0  0
   -1.8025  -11.4544   13.3029 C   0  0  0  0  0  0  0  0  0  0  0  0
    9.6274   -2.2521   25.0824 N   0  0  0  0  0  0  0  0  0  0  0  0
    0.8270  -11.8956   18.3980 N   0  0  0  0  0  0  0  0  0  0  0  0
    4.3283   -9.2091   17.8249 C   0  0  0  0  0  0  0  0  0  0  0  0
   -1.6577  -12.3541   14.3110 C   0  0  0  0  0  0  0  0  0  0  0  0
    2.4114  -10.3282   17.8090 C   0  0  0  0  0  0  0  0  0  0  0  0
   10.0744   -3.7460   16.4688 C   0  0  0  0  0  0  0  0  0  0  0  0
    7.5796   -7.6043   18.3808 C   0  0  0  0  0  0  0  0  0  0  0  0
    4.4665  -10.1924   18.7604 N   0  0  0  0  0  0  0  0  0  0  0  0
    6.5327   -8.4057   18.4591 C   0  0  0  0  0  0  0  0  0  0  0  0
   10.9841   -4.8586   18.4030 C   0  0  0  0  0  0  0  0  0  0  0  0
   -0.6041   -9.8614   14.5051 C   0  0  0  0  0  0  0  0  0  0  0  0
    6.5512   -6.5141   16.5714 C   0  0  0  0  0  0  0  0  0  0  0  0
    7.6997   -6.5549   17.4529 C   0  0  0  0  0  0  0  0  0  0  0  0
    5.4932   -7.3343   16.6889 C   0  0  0  0  0  0  0  0  0  0  0  0
   11.0845   -3.8577   17.4349 C   0  0  0  0  0  0  0  0  0  0  0  0
    2.5123   -8.5876   16.3016 N   0  0  0  0  0  0  0  0  0  0  0  0
    7.9021   -2.7469   26.5739 N   0  0  0  0  0  0  0  0  0  0  0  0
    9.0029   -4.6343   16.4930 C   0  0  0  0  0  0  0  0  0  0  0  0
    1.6535  -12.4002   19.3575 C   0  0  0  0  0  0  0  0  0  0  0  0
    1.2047  -10.8676   17.6101 C   0  0  0  0  0  0  0  0  0  0  0  0
   -1.2872  -10.2049   13.3832 C   0  0  0  0  0  0  0  0  0  0  0  0
  1 10  4  0
  1 32  4  0
  2  8  4  0
  2 26  1  0
  2 31  4  0
  3  7  1  0
  3 33  1  0
  4  6  4  0
  4 14  4  0
  5 16  1  0
  5 22  4  0
  5 27  4  0
  6 30  4  0
  7 11  4  0
  7 24  4  0
  8 23  4  0
  9 14  4  0
  9 30  4  0
 10 18  4  0
 10 21  4  0
 11 17  4  0
 12 16  4  0
 12 18  4  0
 12 29  1  0
 13 17  4  0
 13 34  4  0
 15 32  4  0
 15 33  4  0
 16 21  4  0
 18 33  4  0
 19 28  4  0
 19 31  4  0
 20 22  4  0
 20 26  4  0
 23 28  4  0
 24 34  4  0
 25 26  4  0
 25 27  4  0
M  END
$$$$

 Created by Python create_sdf_string function

 34 83  0  0  0  0  0  0  0  0999 V2000
    8.8975   -6.4223   17.3954 Cl  0  0  0  0  0  0  0  0  0  0  0  0
    7.3868   -6.0071   17.3085 C   0  0  0  0  0  0  0  0  0  0  0  0
    5.1017   -8.1294   17.8171 C   0  0  0  0  0  0  0  0  0  0  0  0
    7.7062   -8.7419   16.1092 C   0  0  0  0  0  0  0  0  0  0  0  0
    9.8455   -6.1606   18.9758 C   0  0  0  0  0  0  0  0  0  0  0  0
    6.7328   -8.2479   17.4334 Cl  0  0  0  0  0  0  0  0  0  0  0  0
   -0.8033  -11.8260   15.8060 C   0  0  0  0  0  0  0  0  0  0  0  0
    7.5293   -9.4418   17.7293 N   0  0  0  0  0  0  0  0  0  0  0  0
    8.0728   -5.9957   16.0748 O   0  0  0  0  0  0  0  0  0  0  0  0
   -1.1582  -12.1358   15.3033 C   0  0  0  0  0  0  0  0  0  0  0  0
    6.7891   -7.7426   18.5601 S   0  0  0  0  0  0  0  0  0  0  0  0
   10.3933   -3.8287   17.2291 F   0  0  0  0  0  0  0  0  0  0  0  0
    7.2107   -8.4430   18.2998 C   0  0  0  0  0  0  0  0  0  0  0  0
    7.1896   -8.5690   17.5770 C   0  0  0  0  0  0  0  0  0  0  0  0
   10.8870   -5.2610   18.5338 Cl  0  0  0  0  0  0  0  0  0  0  0  0
   -0.8655  -10.0141   14.5525 C   0  0  0  0  0  0  0  0  0  0  0  0
    7.3771   -6.1065   16.5064 C   0  0  0  0  0  0  0  0  0  0  0  0
    7.4435   -6.2103   17.5140 C   0  0  0  0  0  0  0  0  0  0  0  0
    5.8250   -7.0557   16.7698 C   0  0  0  0  0  0  0  0  0  0  0  0
   10.9328   -4.6694   17.1213 C   0  0  0  0  0  0  0  0  0  0  0  0
    7.7944   -7.8019   16.7758 F   0  0  0  0  0  0  0  0  0  0  0  0
    8.5165   -4.5889   15.8749 C   0  0  0  0  0  0  0  0  0  0  0  0
    7.7673   -8.0401   16.9137 Cl  0  0  0  0  0  0  0  0  0  0  0  0
   -0.7994   -9.5044   13.1643 C   0  0  0  0  0  0  0  0  0  0  0  0
    9.1033   -8.2442   15.4949 He  0  0  0  0  0  0  0  0  0  0  0  0
    9.0555   -8.4921   16.7669 He  0  0  0  0  0  0  0  0  0  0  0  0
    0.1512  -11.2508   15.7530 He  0  0  0  0  0  0  0  0  0  0  0  0
    8.2301   -8.0391   18.3462 He  0  0  0  0  0  0  0  0  0  0  0  0
    7.9881   -8.7109   16.5190 He  0  0  0  0  0  0  0  0  0  0  0  0
   -1.2479  -11.4631   12.8888 He  0  0  0  0  0  0  0  0  0  0  0  0
    7.2575   -8.1200   16.6837 He  0  0  0  0  0  0  0  0  0  0  0  0
    7.5499   -8.3305   17.5822 He  0  0  0  0  0  0  0  0  0  0  0  0
    6.9046   -7.1863   18.4025 He  0  0  0  0  0  0  0  0  0  0  0  0
    6.3651   -8.1891   15.5568 He  0  0  0  0  0  0  0  0  0  0  0  0
  1  2  2  0
  1  5  4  0
  1  9  3  0
  1 11  1  0
  1 18  1  0
  1 21  4  0
  1 22  4  0
  2  6  3  0
  2  8  2  0
  2 10  1  0
  2 13  4  0
  2 14  4  0
  2 15  1  0
  2 17  1  0
  2 19  3  0
  3 14  4  0
  3 18  4  0
  3 19  4  0
  3 20  3  0
  4  6  4  0
  4 13  3  0
  4 14  2  0
  4 15  3  0
  4 17  1  0
  4 23  1  0
  4 24  1  0
  5  6  3  0
  5  9  2  0
  5 11  3  0
  5 21  2  0
  5 23  3  0
  6 10  2  0
  6 11  2  0
  6 12  1  0
  6 18  1  0
  6 20  4  0
  6 22  4  0
  6 24  3  0
  7 10  4  0
  7 22  2  0
  7 23  2  0
  8 10  1  0
  8 12  3  0
  8 13  2  0
  8 16  4  0
  8 18  3  0
  8 22  3  0
  9 11  4  0
  9 15  3  0
  9 16  3  0
  9 17  4  0
  9 18  3  0
  9 21  3  0
 10 13  2  0
 10 14  2  0
 10 16  2  0
 10 17  3  0
 10 18  1  0
 10 23  2  0
 11 12  4  0
 11 15  3  0
 11 19  2  0
 11 21  2  0
 11 23  1  0
 12 20  4  0
 12 21  3  0
 12 22  4  0
 13 14  4  0
 13 18  4  0
 14 19  2  0
 15 20  1  0
 15 21  1  0
 15 22  4  0
 15 23  2  0
 16 21  4  0
 16 24  4  0
 17 19  4  0
 18 24  4  0
 19 21  2  0
 19 22  1  0
 20 24  3  0
 21 22  1  0
 23 24  2  0
M  END
$$$$

 Created by Python create_sdf_string function

 34 14  0  0  0  0  0  0  0  0999 V2000
    8.5595   -8.1748   15.3861 F   0  0  0  0  0  0  0  0  0  0  0  0
    9.0457   -5.8590   17.8364 C   0  0  0  0  0  0  0  0  0  0  0  0
    9.0454   -8.3631   16.9290 F   0  0  0  0  0  0  0  0  0  0  0  0
    7.5677   -6.0648   16.9351 C   0  0  0  0  0  0  0  0  0  0  0  0
    4.5498   -8.5458   17.2435 F   0  0  0  0  0  0  0  0  0  0  0  0
    7.3034   -8.7702   15.7800 C   0  0  0  0  0  0  0  0  0  0  0  0
   -0.0890  -10.6534   15.5487 C   0  0  0  0  0  0  0  0  0  0  0  0
   10.1616   -5.9994   18.9698 C   0  0  0  0  0  0  0  0  0  0  0  0
    5.8480   -8.2308   17.4964 F   0  0  0  0  0  0  0  0  0  0  0  0
    8.6191   -7.9698   18.6425 F   0  0  0  0  0  0  0  0  0  0  0  0
   -0.6593  -11.6836   15.7190 C   0  0  0  0  0  0  0  0  0  0  0  0
    7.7673   -8.7508   15.9333 F   0  0  0  0  0  0  0  0  0  0  0  0
   -1.2035  -11.3704   13.5950 C   0  0  0  0  0  0  0  0  0  0  0  0
    6.6828   -7.9982   16.4333 C   0  0  0  0  0  0  0  0  0  0  0  0
    7.0317   -9.5150   17.4780 F   0  0  0  0  0  0  0  0  0  0  0  0
    8.0127   -5.2627   15.9220 F   0  0  0  0  0  0  0  0  0  0  0  0
   -1.2371  -12.0448   14.7087 C   0  0  0  0  0  0  0  0  0  0  0  0
    6.2628   -8.0636   18.7741 F   0  0  0  0  0  0  0  0  0  0  0  0
   10.4030   -3.8933   16.8291 C   0  0  0  0  0  0  0  0  0  0  0  0
    6.6515   -8.5423   18.7448 F   0  0  0  0  0  0  0  0  0  0  0  0
    7.2382   -8.3708   17.7815 F   0  0  0  0  0  0  0  0  0  0  0  0
    6.5007   -8.8785   17.7679 C   0  0  0  0  0  0  0  0  0  0  0  0
   11.1463   -5.0955   18.5591 C   0  0  0  0  0  0  0  0  0  0  0  0
   -0.2346  -10.0192   14.5010 C   0  0  0  0  0  0  0  0  0  0  0  0
    7.3125   -5.7707   16.0455 F   0  0  0  0  0  0  0  0  0  0  0  0
    7.7930   -6.3574   17.5595 C   0  0  0  0  0  0  0  0  0  0  0  0
    5.1963   -7.2309   16.6007 F   0  0  0  0  0  0  0  0  0  0  0  0
   11.0345   -4.2920   17.6224 C   0  0  0  0  0  0  0  0  0  0  0  0
    7.7694   -7.4772   16.6167 F   0  0  0  0  0  0  0  0  0  0  0  0
    6.5864   -6.9570   18.4268 F   0  0  0  0  0  0  0  0  0  0  0  0
    9.1552   -4.0725   16.2080 C   0  0  0  0  0  0  0  0  0  0  0  0
    7.6877   -8.1708   16.6711 C   0  0  0  0  0  0  0  0  0  0  0  0
    5.5466   -8.6232   15.6966 F   0  0  0  0  0  0  0  0  0  0  0  0
   -0.6520  -10.0781   13.5621 C   0  0  0  0  0  0  0  0  0  0  0  0
  2  8  4  0
  2 26  1  0
  4 25  1  0
  7 11  4  0
  7 24  4  0
  8 23  4  0
 11 17  4  0
 13 17  4  0
 13 34  4  0
 19 28  4  0
 19 31  4  0
 21 22  1  0
 23 28  4  0
 24 34  4  0
M  END
$$$$

 Created by Python create_sdf_string function

 34 51  0  0  0  0  0  0  0  0999 V2000
    8.9857   -5.6425   17.5554 F   0  0  0  0  0  0  0  0  0  0  0  0
    7.5714   -7.4601   18.2135 Se  0  0  0  0  0  0  0  0  0  0  0  0
    4.4705   -9.0410   17.3245 F   0  0  0  0  0  0  0  0  0  0  0  0
   10.3856   -5.3469   19.2213 C   0  0  0  0  0  0  0  0  0  0  0  0
    6.1389   -7.2665   17.5036 N   0  0  0  0  0  0  0  0  0  0  0  0
   -0.9461  -11.4910   16.1310 C   0  0  0  0  0  0  0  0  0  0  0  0
   10.4249   -8.4858   17.2766 N   0  0  0  0  0  0  0  0  0  0  0  0
   -0.8262  -11.4034   13.8143 C   0  0  0  0  0  0  0  0  0  0  0  0
    8.5054   -6.4701   16.1354 P   0  0  0  0  0  0  0  0  0  0  0  0
   -1.4098  -11.8405   14.8992 C   0  0  0  0  0  0  0  0  0  0  0  0
   10.8217   -3.4754   16.6922 F   0  0  0  0  0  0  0  0  0  0  0  0
    6.8151   -8.7350   18.4765 F   0  0  0  0  0  0  0  0  0  0  0  0
   10.7469   -5.5729   18.0020 C   0  0  0  0  0  0  0  0  0  0  0  0
   -0.2180  -10.4752   14.7281 F   0  0  0  0  0  0  0  0  0  0  0  0
    7.5107   -5.9071   15.0101 F   0  0  0  0  0  0  0  0  0  0  0  0
   10.8131   -4.4307   17.5159 C   0  0  0  0  0  0  0  0  0  0  0  0
    9.3855   -3.5781   16.5841 C   0  0  0  0  0  0  0  0  0  0  0  0
    4.7389   -8.9680   17.6203 S   0  0  0  0  0  0  0  0  0  0  0  0
   -0.8519   -9.9318   13.8137 N   0  0  0  0  0  0  0  0  0  0  0  0
    9.4362   -7.5623   14.9387 He  0  0  0  0  0  0  0  0  0  0  0  0
    8.1670   -8.7420   15.1917 He  0  0  0  0  0  0  0  0  0  0  0  0
    5.4661   -7.8454   14.9460 He  0  0  0  0  0  0  0  0  0  0  0  0
   -0.1446  -10.7180   15.2219 He  0  0  0  0  0  0  0  0  0  0  0  0
    9.6303   -8.5846   17.1830 He  0  0  0  0  0  0  0  0  0  0  0  0
    5.9441   -7.7196   16.1495 He  0  0  0  0  0  0  0  0  0  0  0  0
    6.8353   -9.6568   16.3028 He  0  0  0  0  0  0  0  0  0  0  0  0
    5.6976   -8.2362   18.9878 He  0  0  0  0  0  0  0  0  0  0  0  0
    6.1855   -8.6872   16.8954 He  0  0  0  0  0  0  0  0  0  0  0  0
    7.4169   -8.9810   17.9690 He  0  0  0  0  0  0  0  0  0  0  0  0
    7.6317   -6.9150   17.8258 He  0  0  0  0  0  0  0  0  0  0  0  0
    5.4498   -7.3763   17.1154 He  0  0  0  0  0  0  0  0  0  0  0  0
    7.0758   -7.3129   17.9341 He  0  0  0  0  0  0  0  0  0  0  0  0
    6.3339   -7.1476   18.7769 He  0  0  0  0  0  0  0  0  0  0  0  0
    7.5776   -6.4353   17.5189 He  0  0  0  0  0  0  0  0  0  0  0  0
  1  4  4  0
  1  7  1  0
  2  3  4  0
  2  4  2  0
  2  7  3  0
  2 10  4  0
  2 13  1  0
  2 17  4  0
  2 19  2  0
  3  4  1  0
  3  5  4  0
  3  7  4  0
  4 13  4  0
  5  6  4  0
  5  7  1  0
  5  9  1  0
  5 10  3  0
  5 13  3  0
  5 15  3  0
  5 19  4  0
  6  7  2  0
  6  9  1  0
  6 14  2  0
  6 15  3  0
  6 16  3  0
  6 17  3  0
  7  9  4  0
  7 11  3  0
  7 12  3  0
  7 18  3  0
  8 10  4  0
  8 19  4  0
  9 10  1  0
  9 11  3  0
  9 13  3  0
  9 15  1  0
  9 17  3  0
 10 18  4  0
 11 17  4  0
 12 15  2  0
 12 19  1  0
 13 16  4  0
 13 18  3  0
 14 16  2  0
 14 18  1  0
 14 19  4  0
 15 16  4  0
 15 17  1  0
 15 18  2  0
 16 18  4  0
 18 19  1  0
M  END
$$$$

 Created by Python create_sdf_string function

 34 15  0  0  0  0  0  0  0  0999 V2000
    8.4968   -7.6121   15.4811 F   0  0  0  0  0  0  0  0  0  0  0  0
    8.9950   -5.5311   17.7183 C   0  0  0  0  0  0  0  0  0  0  0  0
    7.8483   -8.4799   15.5650 F   0  0  0  0  0  0  0  0  0  0  0  0
    7.8384   -7.6628   18.1090 F   0  0  0  0  0  0  0  0  0  0  0  0
    3.1928   -8.9733   16.3325 C   0  0  0  0  0  0  0  0  0  0  0  0
    4.8219   -8.2815   15.5508 F   0  0  0  0  0  0  0  0  0  0  0  0
    0.2888  -10.4162   15.5411 C   0  0  0  0  0  0  0  0  0  0  0  0
   10.0570   -5.5078   18.9224 C   0  0  0  0  0  0  0  0  0  0  0  0
    5.7530   -7.6355   17.2877 C   0  0  0  0  0  0  0  0  0  0  0  0
    8.9266   -8.2825   17.2405 F   0  0  0  0  0  0  0  0  0  0  0  0
   -0.5933  -11.4881   15.8593 C   0  0  0  0  0  0  0  0  0  0  0  0
    9.3903   -8.1564   17.6181 F   0  0  0  0  0  0  0  0  0  0  0  0
   -1.1225  -11.1756   13.8582 C   0  0  0  0  0  0  0  0  0  0  0  0
    5.5280   -7.9215   16.1193 F   0  0  0  0  0  0  0  0  0  0  0  0
    6.4970   -9.3036   16.2422 F   0  0  0  0  0  0  0  0  0  0  0  0
    8.0148   -6.2969   16.0924 C   0  0  0  0  0  0  0  0  0  0  0  0
   -1.3077  -11.9124   14.8666 C   0  0  0  0  0  0  0  0  0  0  0  0
    5.6220   -8.5511   18.4537 F   0  0  0  0  0  0  0  0  0  0  0  0
   10.8032   -3.5403   16.7956 F   0  0  0  0  0  0  0  0  0  0  0  0
    6.5406   -8.6216   18.5032 F   0  0  0  0  0  0  0  0  0  0  0  0
    5.5623   -8.7242   16.6317 C   0  0  0  0  0  0  0  0  0  0  0  0
    7.5468   -8.7687   17.6223 F   0  0  0  0  0  0  0  0  0  0  0  0
   10.9370   -4.9378   18.4833 C   0  0  0  0  0  0  0  0  0  0  0  0
    0.3079  -10.0327   14.8442 C   0  0  0  0  0  0  0  0  0  0  0  0
    7.2502   -5.9980   15.4882 F   0  0  0  0  0  0  0  0  0  0  0  0
    8.1788   -6.3896   18.0247 C   0  0  0  0  0  0  0  0  0  0  0  0
    4.5676   -7.3041   16.7252 F   0  0  0  0  0  0  0  0  0  0  0  0
   11.0175   -4.1631   17.6285 C   0  0  0  0  0  0  0  0  0  0  0  0
    7.0381   -7.3084   17.8452 C   0  0  0  0  0  0  0  0  0  0  0  0
    6.2775   -7.0499   18.4619 F   0  0  0  0  0  0  0  0  0  0  0  0
    9.4832   -3.9898   16.2970 C   0  0  0  0  0  0  0  0  0  0  0  0
    7.7686   -6.4839   17.3439 F   0  0  0  0  0  0  0  0  0  0  0  0
    3.7405   -8.9621   16.8701 F   0  0  0  0  0  0  0  0  0  0  0  0
   -0.4931  -10.1274   13.7041 C   0  0  0  0  0  0  0  0  0  0  0  0
  1  3  1  0
  2  8  4  0
  2 26  1  0
  5 33  1  0
  7 11  4  0
  7 24  4  0
  8 23  4  0
 11 17  4  0
 13 17  4  0
 13 34  4  0
 16 25  1  0
 19 28  4  0
 19 31  4  0
 23 28  4  0
 24 34  4  0
M  END
$$$$

 Created by Python create_sdf_string function

 34 81  0  0  0  0  0  0  0  0999 V2000
    7.9121   -7.3065   15.2591 S   0  0  0  0  0  0  0  0  0  0  0  0
    7.9909   -5.2014   17.7892 C   0  0  0  0  0  0  0  0  0  0  0  0
    4.1126   -8.9762   16.1837 O   0  0  0  0  0  0  0  0  0  0  0  0
    0.1829   -9.9053   16.0113 C   0  0  0  0  0  0  0  0  0  0  0  0
    9.4010   -5.0571   18.7055 C   0  0  0  0  0  0  0  0  0  0  0  0
    6.9451   -8.0742   17.5934 C   0  0  0  0  0  0  0  0  0  0  0  0
   -0.4507  -11.6891   16.3010 C   0  0  0  0  0  0  0  0  0  0  0  0
    8.1888   -9.0469   17.8588 Cl  0  0  0  0  0  0  0  0  0  0  0  0
   -1.2666  -12.7724   14.9084 C   0  0  0  0  0  0  0  0  0  0  0  0
    5.5217   -9.9440   18.2762 N   0  0  0  0  0  0  0  0  0  0  0  0
   11.1157   -3.5537   16.0169 Br  0  0  0  0  0  0  0  0  0  0  0  0
    6.8276   -8.3762   18.4478 F   0  0  0  0  0  0  0  0  0  0  0  0
    6.0965  -10.0121   15.6729 P   0  0  0  0  0  0  0  0  0  0  0  0
   -0.1643  -10.1164   14.2287 C   0  0  0  0  0  0  0  0  0  0  0  0
    7.0377   -6.5270   14.8588 F   0  0  0  0  0  0  0  0  0  0  0  0
    8.4312   -6.7516   17.4009 C   0  0  0  0  0  0  0  0  0  0  0  0
    4.7991   -6.9042   17.1039 F   0  0  0  0  0  0  0  0  0  0  0  0
    4.8319   -7.4860   18.4791 C   0  0  0  0  0  0  0  0  0  0  0  0
    6.9488   -5.8689   18.7180 O   0  0  0  0  0  0  0  0  0  0  0  0
    9.3173   -3.7906   16.3160 C   0  0  0  0  0  0  0  0  0  0  0  0
    8.2145   -5.9045   15.5073 C   0  0  0  0  0  0  0  0  0  0  0  0
    3.7769   -7.4455   16.6322 F   0  0  0  0  0  0  0  0  0  0  0  0
   -0.9773  -10.1371   14.1573 C   0  0  0  0  0  0  0  0  0  0  0  0
    8.2111   -7.8983   15.8422 He  0  0  0  0  0  0  0  0  0  0  0  0
    8.6046   -9.3274   17.7923 He  0  0  0  0  0  0  0  0  0  0  0  0
    2.6928   -9.9171   13.7413 He  0  0  0  0  0  0  0  0  0  0  0  0
    8.7053   -8.9916   19.3583 He  0  0  0  0  0  0  0  0  0  0  0  0
   -1.1767  -10.6883   13.5748 He  0  0  0  0  0  0  0  0  0  0  0  0
    5.5352   -9.3300   15.3006 He  0  0  0  0  0  0  0  0  0  0  0  0
    5.7975   -9.7271   16.0553 He  0  0  0  0  0  0  0  0  0  0  0  0
    8.8960   -5.4889   15.6525 He  0  0  0  0  0  0  0  0  0  0  0  0
    7.6246   -8.3712   17.3389 He  0  0  0  0  0  0  0  0  0  0  0  0
   10.6530   -4.9325   18.2697 He  0  0  0  0  0  0  0  0  0  0  0  0
   10.0697   -4.4184   17.3680 He  0  0  0  0  0  0  0  0  0  0  0  0
  1  6  2  0
  1  8  2  0
  1 10  3  0
  1 12  4  0
  1 13  4  0
  1 14  1  0
  1 16  4  0
  1 18  4  0
  1 19  4  0
  1 20  2  0
  1 22  1  0
  2  3  1  0
  2  7  3  0
  2 13  4  0
  2 14  2  0
  2 16  1  0
  2 22  1  0
  3 10  4  0
  3 16  3  0
  3 23  2  0
  4 10  3  0
  4 11  1  0
  4 22  4  0
  4 23  4  0
  5  6  4  0
  5  9  2  0
  5 13  1  0
  5 18  4  0
  5 22  3  0
  6  9  2  0
  6 10  3  0
  6 12  2  0
  6 15  4  0
  6 16  3  0
  6 17  1  0
  6 19  3  0
  6 20  1  0
  7 19  2  0
  7 20  3  0
  7 21  3  0
  8 10  1  0
  8 13  3  0
  8 15  2  0
  8 17  1  0
  8 20  3  0
  9 11  3  0
  9 15  2  0
  9 17  2  0
  9 20  3  0
 10 18  4  0
 10 19  3  0
 10 21  2  0
 10 22  4  0
 11 12  4  0
 11 18  3  0
 11 20  1  0
 11 22  4  0
 12 13  4  0
 12 19  1  0
 13 14  4  0
 13 17  4  0
 13 19  3  0
 13 20  2  0
 14 16  3  0
 14 18  3  0
 14 19  3  0
 14 22  4  0
 14 23  4  0
 15 19  3  0
 16 22  2  0
 17 19  3  0
 17 20  2  0
 17 21  4  0
 17 22  1  0
 18 19  2  0
 18 21  2  0
 18 22  2  0
 19 22  2  0
 20 21  1  0
 20 22  3  0
 21 22  3  0
M  END
$$$$

 Created by Python create_sdf_string function

 34 16  0  0  0  0  0  0  0  0999 V2000
    7.9734   -7.4290   15.5859 F   0  0  0  0  0  0  0  0  0  0  0  0
    8.5916   -5.5679   17.7381 C   0  0  0  0  0  0  0  0  0  0  0  0
    8.1295   -7.9637   15.8677 F   0  0  0  0  0  0  0  0  0  0  0  0
    8.7116   -8.4125   17.3824 F   0  0  0  0  0  0  0  0  0  0  0  0
    3.4144   -9.1302   15.9322 O   0  0  0  0  0  0  0  0  0  0  0  0
    2.1946   -9.1933   15.1819 C   0  0  0  0  0  0  0  0  0  0  0  0
    0.5973  -10.3877   15.5334 C   0  0  0  0  0  0  0  0  0  0  0  0
    9.6035   -4.9542   18.9382 F   0  0  0  0  0  0  0  0  0  0  0  0
    6.7339   -7.9638   17.3355 C   0  0  0  0  0  0  0  0  0  0  0  0
    9.0395   -8.0947   18.6663 F   0  0  0  0  0  0  0  0  0  0  0  0
   -0.3711  -11.5287   15.9472 C   0  0  0  0  0  0  0  0  0  0  0  0
    8.3446   -8.3524   17.4623 F   0  0  0  0  0  0  0  0  0  0  0  0
   -1.2818  -11.1698   14.0313 C   0  0  0  0  0  0  0  0  0  0  0  0
    4.7961   -9.0946   15.6329 C   0  0  0  0  0  0  0  0  0  0  0  0
    5.4438   -9.2280   16.1716 F   0  0  0  0  0  0  0  0  0  0  0  0
    8.8503   -5.4134   16.2466 F   0  0  0  0  0  0  0  0  0  0  0  0
   -1.1872  -11.9981   15.1157 C   0  0  0  0  0  0  0  0  0  0  0  0
    5.1998   -9.3708   17.7421 F   0  0  0  0  0  0  0  0  0  0  0  0
   10.8417   -3.6348   16.2279 F   0  0  0  0  0  0  0  0  0  0  0  0
    6.4973   -8.3687   18.7209 F   0  0  0  0  0  0  0  0  0  0  0  0
    5.9686   -9.4315   15.6758 F   0  0  0  0  0  0  0  0  0  0  0  0
    7.6784   -8.5430   17.1098 C   0  0  0  0  0  0  0  0  0  0  0  0
   10.5993   -4.6688   18.4915 F   0  0  0  0  0  0  0  0  0  0  0  0
    0.2701   -9.8987   14.4186 C   0  0  0  0  0  0  0  0  0  0  0  0
    7.0124   -6.5123   15.0808 F   0  0  0  0  0  0  0  0  0  0  0  0
    8.5064   -6.3170   17.4163 C   0  0  0  0  0  0  0  0  0  0  0  0
    4.5728   -7.1549   16.9107 F   0  0  0  0  0  0  0  0  0  0  0  0
   10.3931   -4.2487   17.5409 C   0  0  0  0  0  0  0  0  0  0  0  0
    5.0529   -7.9196   17.7453 F   0  0  0  0  0  0  0  0  0  0  0  0
    7.1550   -6.3371   18.3162 F   0  0  0  0  0  0  0  0  0  0  0  0
    9.5573   -3.9047   16.0712 C   0  0  0  0  0  0  0  0  0  0  0  0
    8.4090   -5.6526   16.0188 C   0  0  0  0  0  0  0  0  0  0  0  0
    3.7256   -8.2097   16.5538 C   0  0  0  0  0  0  0  0  0  0  0  0
   -0.5714  -10.2534   13.8384 C   0  0  0  0  0  0  0  0  0  0  0  0
  1  3  1  0
  2  8  1  0
  2 26  1  0
  5 33  1  0
  7 11  4  0
  7 24  4  0
  8 23  1  0
 11 17  4  0
 13 17  4  0
 13 34  4  0
 16 26  1  0
 16 32  1  0
 19 31  1  0
 23 28  1  0
 24 34  4  0
 27 33  1  0
M  END
$$$$

 Created by Python create_sdf_string function

 34 90  0  0  0  0  0  0  0  0999 V2000
    8.8789   -5.6112   18.1708 C   0  0  0  0  0  0  0  0  0  0  0  0
    7.2941   -9.0116   16.4864 P   0  0  0  0  0  0  0  0  0  0  0  0
    3.6415   -9.0436   16.3217 O   0  0  0  0  0  0  0  0  0  0  0  0
    1.3661   -8.8516   16.0744 Cl  0  0  0  0  0  0  0  0  0  0  0  0
    7.1594   -7.6574   19.1163 B   0  0  0  0  0  0  0  0  0  0  0  0
   -0.5611  -12.2489   16.4435 N   0  0  0  0  0  0  0  0  0  0  0  0
    7.6757   -8.5513   16.5613 F   0  0  0  0  0  0  0  0  0  0  0  0
   -1.4926  -11.3910   14.8824 C   0  0  0  0  0  0  0  0  0  0  0  0
    4.5151   -9.9318   15.7602 N   0  0  0  0  0  0  0  0  0  0  0  0
   -0.9089  -11.8533   14.9723 C   0  0  0  0  0  0  0  0  0  0  0  0
    5.9070   -8.8918   18.7672 N   0  0  0  0  0  0  0  0  0  0  0  0
   10.5034   -3.4579   16.2072 F   0  0  0  0  0  0  0  0  0  0  0  0
    6.6618   -7.4463   18.7011 F   0  0  0  0  0  0  0  0  0  0  0  0
    7.5021   -8.0255   17.6091 F   0  0  0  0  0  0  0  0  0  0  0  0
   10.7821   -4.2351   18.3870 S   0  0  0  0  0  0  0  0  0  0  0  0
   -0.0250   -9.5496   14.2951 B   0  0  0  0  0  0  0  0  0  0  0  0
    7.3555   -6.6668   14.6010 F   0  0  0  0  0  0  0  0  0  0  0  0
    8.0705   -5.9651   17.4563 C   0  0  0  0  0  0  0  0  0  0  0  0
    4.6237   -7.0699   16.8318 F   0  0  0  0  0  0  0  0  0  0  0  0
   10.5046   -3.8145   17.3895 C   0  0  0  0  0  0  0  0  0  0  0  0
    6.7952   -5.1345   17.9573 C   0  0  0  0  0  0  0  0  0  0  0  0
   10.0496   -4.0404   16.6159 C   0  0  0  0  0  0  0  0  0  0  0  0
    9.0204   -4.8533   14.9439 N   0  0  0  0  0  0  0  0  0  0  0  0
   -0.7717  -10.0116   13.6069 F   0  0  0  0  0  0  0  0  0  0  0  0
    8.3094   -7.1987   15.2192 He  0  0  0  0  0  0  0  0  0  0  0  0
    7.5507   -6.7779   18.8377 He  0  0  0  0  0  0  0  0  0  0  0  0
    0.5827   -9.8285   15.4920 He  0  0  0  0  0  0  0  0  0  0  0  0
   10.0591   -5.0097   18.2161 He  0  0  0  0  0  0  0  0  0  0  0  0
    6.9982   -6.7793   19.0486 He  0  0  0  0  0  0  0  0  0  0  0  0
    4.0337  -10.5329   15.3440 He  0  0  0  0  0  0  0  0  0  0  0  0
    8.6002   -5.1959   15.6299 He  0  0  0  0  0  0  0  0  0  0  0  0
    6.1108  -10.2676   15.7404 He  0  0  0  0  0  0  0  0  0  0  0  0
    4.6146   -8.0345   17.7321 He  0  0  0  0  0  0  0  0  0  0  0  0
    4.1616   -6.4856   16.8831 He  0  0  0  0  0  0  0  0  0  0  0  0
  1  2  4  0
  1  5  1  0
  1  7  3  0
  1  9  4  0
  1 16  4  0
  1 17  4  0
  1 18  1  0
  1 19  1  0
  1 21  3  0
  2  5  3  0
  2  9  4  0
  2 11  1  0
  2 16  4  0
  2 18  1  0
  2 19  2  0
  2 21  2  0
  2 24  1  0
  3  4  1  0
  3  5  1  0
  3  7  1  0
  3  9  2  0
  3 11  1  0
  3 13  1  0
  3 22  3  0
  3 23  1  0
  4  7  4  0
  4  9  1  0
  4 13  4  0
  4 14  1  0
  4 15  3  0
  4 18  1  0
  4 20  3  0
  4 21  3  0
  4 23  3  0
  5  6  1  0
  5 11  1  0
  5 12  2  0
  5 13  2  0
  5 15  4  0
  5 17  1  0
  5 19  4  0
  5 22  3  0
  5 24  2  0
  6 10  4  0
  6 11  3  0
  6 24  3  0
  7  8  3  0
  7 11  1  0
  7 17  2  0
  7 18  2  0
  7 19  1  0
  7 21  3  0
  7 22  4  0
  8 10  4  0
  8 14  2  0
  8 24  4  0
  9 11  2  0
  9 13  4  0
  9 14  2  0
  9 15  3  0
  9 16  1  0
  9 18  1  0
  9 20  1  0
 10 12  2  0
 10 14  1  0
 10 23  2  0
 11 13  2  0
 11 14  3  0
 11 17  3  0
 11 21  1  0
 11 22  2  0
 11 23  3  0
 12 22  1  0
 13 17  3  0
 13 21  1  0
 14 18  1  0
 14 20  1  0
 14 23  2  0
 14 24  4  0
 15 18  1  0
 15 19  1  0
 15 20  1  0
 15 21  1  0
 16 18  2  0
 16 24  4  0
 17 19  3  0
 17 20  4  0
 19 21  1  0
 20 21  4  0
 20 23  4  0
M  END
$$$$

 Created by Python create_sdf_string function

 34 20  0  0  0  0  0  0  0  0999 V2000
    8.2028   -7.7490   15.5329 F   0  0  0  0  0  0  0  0  0  0  0  0
    9.0824   -5.5036   18.2217 C   0  0  0  0  0  0  0  0  0  0  0  0
    8.1164   -6.8202   18.5401 F   0  0  0  0  0  0  0  0  0  0  0  0
    6.9850   -8.7828   16.2481 C   0  0  0  0  0  0  0  0  0  0  0  0
    2.9883   -8.9614   16.1829 O   0  0  0  0  0  0  0  0  0  0  0  0
    1.7252   -9.4940   16.1960 C   0  0  0  0  0  0  0  0  0  0  0  0
    0.6872  -10.1693   15.5548 C   0  0  0  0  0  0  0  0  0  0  0  0
   10.0748   -4.8686   18.6611 F   0  0  0  0  0  0  0  0  0  0  0  0
    7.2084   -6.7373   18.5986 F   0  0  0  0  0  0  0  0  0  0  0  0
    7.2484   -7.9259   18.5590 F   0  0  0  0  0  0  0  0  0  0  0  0
   -0.0439  -11.3430   16.0655 N   0  0  0  0  0  0  0  0  0  0  0  0
    7.7060   -8.3260   16.1110 C   0  0  0  0  0  0  0  0  0  0  0  0
   -1.3524  -11.2953   14.3642 C   0  0  0  0  0  0  0  0  0  0  0  0
    4.3291   -9.3791   16.0376 C   0  0  0  0  0  0  0  0  0  0  0  0
    4.1349   -9.6339   15.6585 C   0  0  0  0  0  0  0  0  0  0  0  0
    8.8532   -5.1153   16.1039 F   0  0  0  0  0  0  0  0  0  0  0  0
   -1.0190  -11.7896   15.3540 C   0  0  0  0  0  0  0  0  0  0  0  0
    5.9063   -8.8278   18.3144 F   0  0  0  0  0  0  0  0  0  0  0  0
   10.6612   -3.3079   15.8691 F   0  0  0  0  0  0  0  0  0  0  0  0
    6.3212   -7.4397   18.7907 F   0  0  0  0  0  0  0  0  0  0  0  0
    6.0969   -9.5904   15.8430 F   0  0  0  0  0  0  0  0  0  0  0  0
    7.9045   -8.2064   17.4126 F   0  0  0  0  0  0  0  0  0  0  0  0
   10.9344   -3.9611   18.5844 F   0  0  0  0  0  0  0  0  0  0  0  0
    0.2352   -9.6084   14.3514 C   0  0  0  0  0  0  0  0  0  0  0  0
    7.4507   -6.8081   15.0734 F   0  0  0  0  0  0  0  0  0  0  0  0
    8.4920   -6.0223   17.4974 C   0  0  0  0  0  0  0  0  0  0  0  0
    4.5869   -7.2929   16.9171 F   0  0  0  0  0  0  0  0  0  0  0  0
   10.6345   -3.9079   17.7127 C   0  0  0  0  0  0  0  0  0  0  0  0
    4.7122   -8.2948   17.0632 C   0  0  0  0  0  0  0  0  0  0  0  0
    7.4930   -6.0265   17.7663 F   0  0  0  0  0  0  0  0  0  0  0  0
   10.0867   -3.9112   16.4291 C   0  0  0  0  0  0  0  0  0  0  0  0
    9.0386   -4.6658   15.6731 F   0  0  0  0  0  0  0  0  0  0  0  0
    4.2668   -7.2404   16.4589 F   0  0  0  0  0  0  0  0  0  0  0  0
   -0.8218  -10.2144   13.8274 C   0  0  0  0  0  0  0  0  0  0  0  0
  1 12  1  0
  2  8  1  0
  2 26  1  0
  4 21  1  0
  5  6  1  0
  6  7  1  0
  7 11  4  0
  7 24  4  0
  8 23  1  0
  8 28  1  0
 11 17  4  0
 13 17  4  0
 13 34  4  0
 14 15  1  0
 16 32  1  0
 19 31  1  0
 23 28  1  0
 24 34  4  0
 27 29  1  0
 28 31  1  0
M  END
$$$$

 Created by Python create_sdf_string function

 34 79  0  0  0  0  0  0  0  0999 V2000
    9.5934   -8.6826   17.3867 F   0  0  0  0  0  0  0  0  0  0  0  0
    1.8600   -9.6641   15.6586 O   0  0  0  0  0  0  0  0  0  0  0  0
    0.5794  -10.0058   15.8946 C   0  0  0  0  0  0  0  0  0  0  0  0
    9.9621   -5.3318   18.8539 F   0  0  0  0  0  0  0  0  0  0  0  0
    7.8358   -7.4526   17.8358 B   0  0  0  0  0  0  0  0  0  0  0  0
    7.2822   -7.2887   17.8720 O   0  0  0  0  0  0  0  0  0  0  0  0
   -0.0609  -11.3227   15.4653 N   0  0  0  0  0  0  0  0  0  0  0  0
   -1.9933  -11.2713   13.7977 C   0  0  0  0  0  0  0  0  0  0  0  0
    4.9434   -9.8984   16.2493 O   0  0  0  0  0  0  0  0  0  0  0  0
    4.6292  -10.6173   14.0252 O   0  0  0  0  0  0  0  0  0  0  0  0
    7.7882   -5.2248   15.4095 F   0  0  0  0  0  0  0  0  0  0  0  0
   -1.4155  -11.1740   14.8997 C   0  0  0  0  0  0  0  0  0  0  0  0
   10.5581   -4.1685   16.0983 F   0  0  0  0  0  0  0  0  0  0  0  0
    6.3625   -7.3401   19.4846 F   0  0  0  0  0  0  0  0  0  0  0  0
    7.1735   -9.1539   14.9242 O   0  0  0  0  0  0  0  0  0  0  0  0
    7.7938   -7.8508   18.0274 S   0  0  0  0  0  0  0  0  0  0  0  0
    0.0604   -9.4413   14.4237 C   0  0  0  0  0  0  0  0  0  0  0  0
    9.1561   -5.7304   16.8031 F   0  0  0  0  0  0  0  0  0  0  0  0
    4.9235   -7.3883   15.9155 F   0  0  0  0  0  0  0  0  0  0  0  0
    7.8688   -4.6980   15.2140 B   0  0  0  0  0  0  0  0  0  0  0  0
   -1.0932  -10.2343   14.7571 C   0  0  0  0  0  0  0  0  0  0  0  0
    8.9198   -5.2238   18.7604 He  0  0  0  0  0  0  0  0  0  0  0  0
    8.6496   -5.0656   19.1664 He  0  0  0  0  0  0  0  0  0  0  0  0
    6.7124   -7.6955   17.9027 He  0  0  0  0  0  0  0  0  0  0  0  0
    3.0997   -8.3961   16.0332 He  0  0  0  0  0  0  0  0  0  0  0  0
    7.8911   -7.8830   14.1934 He  0  0  0  0  0  0  0  0  0  0  0  0
    4.8169   -8.5264   18.9941 He  0  0  0  0  0  0  0  0  0  0  0  0
   11.2883   -3.6773   18.8211 He  0  0  0  0  0  0  0  0  0  0  0  0
    7.7315   -7.0125   15.3383 He  0  0  0  0  0  0  0  0  0  0  0  0
   10.1729   -3.9417   18.1319 He  0  0  0  0  0  0  0  0  0  0  0  0
    4.8945   -8.8216   17.9851 He  0  0  0  0  0  0  0  0  0  0  0  0
   10.7876   -3.2878   16.5401 He  0  0  0  0  0  0  0  0  0  0  0  0
   10.3540   -2.5852   15.9480 He  0  0  0  0  0  0  0  0  0  0  0  0
    5.1981   -8.4873   16.8269 He  0  0  0  0  0  0  0  0  0  0  0  0
  1  2  4  0
  1  3  3  0
  1  9  3  0
  1 10  2  0
  1 11  2  0
  1 12  3  0
  1 14  1  0
  1 15  2  0
  1 16  3  0
  1 17  3  0
  1 18  3  0
  1 19  1  0
  1 21  1  0
  2  5  1  0
  2  6  2  0
  2  9  3  0
  2 17  3  0
  2 19  1  0
  2 20  3  0
  3  4  4  0
  3  5  1  0
  3  6  3  0
  3  9  3  0
  3 13  1  0
  3 16  4  0
  4  5  4  0
  4  6  2  0
  4 11  3  0
  4 15  4  0
  4 16  1  0
  5  6  3  0
  5  7  4  0
  5 11  3  0
  5 12  2  0
  5 14  2  0
  5 15  3  0
  5 17  4  0
  5 18  1  0
  5 19  3  0
  5 20  4  0
  6 10  2  0
  6 11  4  0
  6 14  1  0
  6 16  4  0
  6 19  1  0
  7 12  4  0
  7 16  3  0
  7 19  3  0
  7 20  1  0
  7 21  2  0
  8 11  2  0
  8 12  4  0
  8 14  4  0
  8 18  3  0
  8 19  2  0
  8 21  4  0
  9 10  3  0
  9 15  4  0
  9 18  3  0
 10 11  4  0
 10 13  1  0
 10 14  4  0
 10 16  4  0
 10 17  3  0
 10 20  2  0
 11 12  3  0
 11 13  2  0
 11 20  3  0
 11 21  2  0
 12 16  3  0
 13 15  2  0
 13 18  3  0
 14 15  4  0
 15 16  4  0
 15 18  1  0
 15 19  3  0
 17 20  2  0
 17 21  3  0
 20 21  3  0
M  END
$$$$

 Created by Python create_sdf_string function

 34 19  0  0  0  0  0  0  0  0999 V2000
    9.0392   -8.0463   17.5099 F   0  0  0  0  0  0  0  0  0  0  0  0
    9.2122   -5.5671   18.4642 F   0  0  0  0  0  0  0  0  0  0  0  0
    9.3283   -4.9598   18.9169 F   0  0  0  0  0  0  0  0  0  0  0  0
    6.7333   -7.9294   17.5994 C   0  0  0  0  0  0  0  0  0  0  0  0
    2.8571   -9.0026   16.1133 C   0  0  0  0  0  0  0  0  0  0  0  0
    1.9201   -9.6000   15.9642 C   0  0  0  0  0  0  0  0  0  0  0  0
    0.8330  -10.0441   15.4793 C   0  0  0  0  0  0  0  0  0  0  0  0
    9.9561   -5.1849   18.9585 F   0  0  0  0  0  0  0  0  0  0  0  0
    8.2158   -6.9622   17.5697 F   0  0  0  0  0  0  0  0  0  0  0  0
    7.3279   -7.2704   17.7300 C   0  0  0  0  0  0  0  0  0  0  0  0
   -0.0950  -11.2025   15.7765 N   0  0  0  0  0  0  0  0  0  0  0  0
    7.8319   -8.0900   15.3725 F   0  0  0  0  0  0  0  0  0  0  0  0
   -1.7065  -10.8895   14.0406 C   0  0  0  0  0  0  0  0  0  0  0  0
    4.4111   -9.2326   16.0678 C   0  0  0  0  0  0  0  0  0  0  0  0
    4.0501   -9.3831   15.0888 C   0  0  0  0  0  0  0  0  0  0  0  0
    8.1171   -5.6407   15.7951 F   0  0  0  0  0  0  0  0  0  0  0  0
   -1.1850  -11.5224   15.0324 C   0  0  0  0  0  0  0  0  0  0  0  0
    5.1695   -8.9189   18.0582 F   0  0  0  0  0  0  0  0  0  0  0  0
   10.5779   -3.9955   16.1614 F   0  0  0  0  0  0  0  0  0  0  0  0
    6.3293   -7.5629   18.9504 F   0  0  0  0  0  0  0  0  0  0  0  0
    7.2100   -8.8205   15.5727 F   0  0  0  0  0  0  0  0  0  0  0  0
    7.6780   -7.8815   17.7805 F   0  0  0  0  0  0  0  0  0  0  0  0
   10.9607   -3.7371   18.8765 F   0  0  0  0  0  0  0  0  0  0  0  0
    0.1940   -9.4141   14.4496 C   0  0  0  0  0  0  0  0  0  0  0  0
    7.7511   -7.0599   15.5463 F   0  0  0  0  0  0  0  0  0  0  0  0
    9.1004   -5.5205   17.1113 C   0  0  0  0  0  0  0  0  0  0  0  0
    5.1028   -7.4771   15.9388 F   0  0  0  0  0  0  0  0  0  0  0  0
   10.5090   -3.9208   18.1176 C   0  0  0  0  0  0  0  0  0  0  0  0
    4.8034   -8.7752   17.4419 C   0  0  0  0  0  0  0  0  0  0  0  0
    8.5659   -4.9575   15.8763 F   0  0  0  0  0  0  0  0  0  0  0  0
   10.8218   -3.5477   16.9697 C   0  0  0  0  0  0  0  0  0  0  0  0
   10.4651   -3.2765   16.3741 F   0  0  0  0  0  0  0  0  0  0  0  0
    5.2108   -8.5107   16.6764 C   0  0  0  0  0  0  0  0  0  0  0  0
   -0.8641   -9.9822   13.8973 C   0  0  0  0  0  0  0  0  0  0  0  0
  2  8  1  0
  2 26  1  0
  4 22  1  0
  5  6  1  0
  6  7  1  0
  7 11  4  0
  7 24  4  0
  8 28  1  0
 11 17  4  0
 12 21  1  0
 12 25  1  0
 13 17  4  0
 13 34  4  0
 18 29  1  0
 19 31  1  0
 23 28  1  0
 24 34  4  0
 28 31  1  0
 31 32  1  0
M  END
$$$$

 Created by Python create_sdf_string function

 34 77  0  0  0  0  0  0  0  0999 V2000
    8.3163   -8.5000   16.4318 O   0  0  0  0  0  0  0  0  0  0  0  0
    9.8071   -5.1025   19.0448 F   0  0  0  0  0  0  0  0  0  0  0  0
   10.5464   -4.0788   17.8300 N   0  0  0  0  0  0  0  0  0  0  0  0
    1.6932   -8.2831   14.9321 S   0  0  0  0  0  0  0  0  0  0  0  0
    0.7838  -10.6413   14.8692 Se  0  0  0  0  0  0  0  0  0  0  0  0
    9.3389   -7.5133   16.1683 O   0  0  0  0  0  0  0  0  0  0  0  0
    7.4389   -9.0582   16.5677 O   0  0  0  0  0  0  0  0  0  0  0  0
    8.7692   -7.9104   17.0987 F   0  0  0  0  0  0  0  0  0  0  0  0
    6.2544   -8.0787   20.8379 S   0  0  0  0  0  0  0  0  0  0  0  0
   10.2187   -4.3930   16.5518 F   0  0  0  0  0  0  0  0  0  0  0  0
    7.5924   -8.3750   17.0547 F   0  0  0  0  0  0  0  0  0  0  0  0
    8.0783   -7.3036   18.1100 F   0  0  0  0  0  0  0  0  0  0  0  0
   11.1965   -4.1042   18.9754 N   0  0  0  0  0  0  0  0  0  0  0  0
    7.6776   -7.7757   15.4105 F   0  0  0  0  0  0  0  0  0  0  0  0
    9.6005   -5.0009   17.5505 C   0  0  0  0  0  0  0  0  0  0  0  0
    5.0577   -7.5238   15.6228 F   0  0  0  0  0  0  0  0  0  0  0  0
    9.6968   -3.3698   18.5687 C   0  0  0  0  0  0  0  0  0  0  0  0
    4.2646   -8.2011   19.3457 P   0  0  0  0  0  0  0  0  0  0  0  0
   10.7450   -3.3891   17.2214 C   0  0  0  0  0  0  0  0  0  0  0  0
   10.0712   -4.6281   17.2270 F   0  0  0  0  0  0  0  0  0  0  0  0
    5.8128   -8.0146   17.4284 C   0  0  0  0  0  0  0  0  0  0  0  0
   -1.1834  -10.2629   13.4535 C   0  0  0  0  0  0  0  0  0  0  0  0
    5.7358   -9.0848   18.8627 He  0  0  0  0  0  0  0  0  0  0  0  0
    3.0648   -8.6864   15.9317 He  0  0  0  0  0  0  0  0  0  0  0  0
   10.3913   -4.7345   18.4653 He  0  0  0  0  0  0  0  0  0  0  0  0
    8.5424   -7.6950   18.3227 He  0  0  0  0  0  0  0  0  0  0  0  0
    0.0757  -10.5819   16.0068 He  0  0  0  0  0  0  0  0  0  0  0  0
   -2.2465  -10.8761   14.2202 He  0  0  0  0  0  0  0  0  0  0  0  0
    3.9363   -7.9928   16.2442 He  0  0  0  0  0  0  0  0  0  0  0  0
    4.8641   -8.6899   15.3075 He  0  0  0  0  0  0  0  0  0  0  0  0
   -0.6184  -12.3753   13.7231 He  0  0  0  0  0  0  0  0  0  0  0  0
    6.6720   -7.2821   19.3598 He  0  0  0  0  0  0  0  0  0  0  0  0
    0.2854   -9.2984   14.4207 He  0  0  0  0  0  0  0  0  0  0  0  0
   10.1258   -5.0914   15.8724 He  0  0  0  0  0  0  0  0  0  0  0  0
  1  3  4  0
  1  5  3  0
  1  6  2  0
  1  7  2  0
  1 12  3  0
  1 14  4  0
  1 15  3  0
  1 16  1  0
  2  6  1  0
  2  7  3  0
  2  8  1  0
  2  9  2  0
  2 10  2  0
  2 18  3  0
  2 19  1  0
  2 21  4  0
  2 22  2  0
  3  7  1  0
  3 10  1  0
  3 11  4  0
  3 12  3  0
  3 14  4  0
  3 16  1  0
  3 18  4  0
  3 21  1  0
  3 22  3  0
  4 11  1  0
  4 12  1  0
  4 17  3  0
  4 21  3  0
  5  9  3  0
  5 19  4  0
  5 20  2  0
  6  8  2  0
  6  9  2  0
  6 11  3  0
  6 12  1  0
  6 13  3  0
  6 19  4  0
  6 21  4  0
  6 22  3  0
  7  8  1  0
  7 13  4  0
  7 22  2  0
  8 11  1  0
  8 16  2  0
  8 21  4  0
  9 11  1  0
  9 12  4  0
  9 17  1  0
  9 18  2  0
  9 19  3  0
  9 20  4  0
 10 11  3  0
 10 19  4  0
 10 20  2  0
 11 12  3  0
 11 13  3  0
 11 16  2  0
 11 20  3  0
 11 21  2  0
 12 13  1  0
 13 20  1  0
 13 21  4  0
 14 17  2  0
 15 20  4  0
 15 21  4  0
 15 22  4  0
 16 18  2  0
 16 20  1  0
 16 21  2  0
 17 19  1  0
 18 19  1  0
 18 21  3  0
 19 20  2  0
 20 21  4  0
 20 22  3  0
M  END
$$$$

 Created by Python create_sdf_string function

 34 16  0  0  0  0  0  0  0  0999 V2000
    8.1851   -8.3847   16.3307 C   0  0  0  0  0  0  0  0  0  0  0  0
   10.0666   -5.3372   19.7616 F   0  0  0  0  0  0  0  0  0  0  0  0
   10.6210   -3.8734   18.1043 C   0  0  0  0  0  0  0  0  0  0  0  0
    5.5971   -8.7637   18.1515 F   0  0  0  0  0  0  0  0  0  0  0  0
    2.8417   -8.7345   15.8631 C   0  0  0  0  0  0  0  0  0  0  0  0
    1.8358   -9.1168   15.2939 C   0  0  0  0  0  0  0  0  0  0  0  0
    0.6493   -9.9287   14.9268 C   0  0  0  0  0  0  0  0  0  0  0  0
   10.2010   -5.1654   19.3292 F   0  0  0  0  0  0  0  0  0  0  0  0
    8.9158   -7.1258   16.3541 F   0  0  0  0  0  0  0  0  0  0  0  0
    8.8345   -7.3411   18.0642 C   0  0  0  0  0  0  0  0  0  0  0  0
    0.1089  -10.9720   15.4580 C   0  0  0  0  0  0  0  0  0  0  0  0
    7.2410   -8.8949   16.6205 F   0  0  0  0  0  0  0  0  0  0  0  0
   -1.4286  -11.1006   13.8297 C   0  0  0  0  0  0  0  0  0  0  0  0
    3.8436   -8.5421   16.3622 C   0  0  0  0  0  0  0  0  0  0  0  0
    4.4214   -8.4581   15.7848 C   0  0  0  0  0  0  0  0  0  0  0  0
    8.6624   -7.9521   17.2842 F   0  0  0  0  0  0  0  0  0  0  0  0
   -0.9308  -11.5876   14.7921 C   0  0  0  0  0  0  0  0  0  0  0  0
    6.4124   -8.2472   19.1779 F   0  0  0  0  0  0  0  0  0  0  0  0
   10.2644   -4.0934   16.0350 F   0  0  0  0  0  0  0  0  0  0  0  0
    6.7528   -7.3699   18.4481 F   0  0  0  0  0  0  0  0  0  0  0  0
    7.4792   -8.1320   17.0932 C   0  0  0  0  0  0  0  0  0  0  0  0
    8.2473   -7.1374   18.3735 F   0  0  0  0  0  0  0  0  0  0  0  0
   11.0092   -3.7908   19.7723 F   0  0  0  0  0  0  0  0  0  0  0  0
    0.1355   -9.4584   13.9068 C   0  0  0  0  0  0  0  0  0  0  0  0
    7.7711   -7.9395   15.3208 F   0  0  0  0  0  0  0  0  0  0  0  0
    9.6949   -5.4311   17.7442 C   0  0  0  0  0  0  0  0  0  0  0  0
    5.1303   -7.5996   15.5812 F   0  0  0  0  0  0  0  0  0  0  0  0
   10.6430   -3.8109   19.0614 C   0  0  0  0  0  0  0  0  0  0  0  0
    4.6793   -8.7622   18.0166 F   0  0  0  0  0  0  0  0  0  0  0  0
    9.8198   -4.7443   16.0284 F   0  0  0  0  0  0  0  0  0  0  0  0
   10.9390   -3.3033   17.1756 C   0  0  0  0  0  0  0  0  0  0  0  0
    9.9867   -4.9489   17.5322 F   0  0  0  0  0  0  0  0  0  0  0  0
    5.6347   -8.2969   17.0173 C   0  0  0  0  0  0  0  0  0  0  0  0
   -0.9675  -10.0553   13.4172 C   0  0  0  0  0  0  0  0  0  0  0  0
  2  8  1  0
  3 31  4  0
  5  6  1  0
  5 14  1  0
  6  7  1  0
  7 11  4  0
  7 24  4  0
 10 16  1  0
 10 22  1  0
 11 17  4  0
 13 17  4  0
 13 34  4  0
 19 30  4  0
 19 31  4  0
 24 34  4  0
 26 32  4  0
M  END
$$$$

 Created by Python create_sdf_string function

 34 92  0  0  0  0  0  0  0  0999 V2000
    8.3421  -10.5624   16.9762 Cl  0  0  0  0  0  0  0  0  0  0  0  0
   10.0017   -5.5263   19.7161 F   0  0  0  0  0  0  0  0  0  0  0  0
    2.4062   -8.9363   16.2531 C   0  0  0  0  0  0  0  0  0  0  0  0
    2.5082   -9.2796   14.3433 O   0  0  0  0  0  0  0  0  0  0  0  0
    1.3607  -10.1441   14.9877 C   0  0  0  0  0  0  0  0  0  0  0  0
   10.8462   -4.8390   19.3219 F   0  0  0  0  0  0  0  0  0  0  0  0
    8.3677   -5.9272   18.1871 C   0  0  0  0  0  0  0  0  0  0  0  0
   -1.4806  -11.5911   14.0751 C   0  0  0  0  0  0  0  0  0  0  0  0
    4.0091   -7.7115   18.5944 F   0  0  0  0  0  0  0  0  0  0  0  0
    3.1060   -9.0726   15.4850 O   0  0  0  0  0  0  0  0  0  0  0  0
    7.3333   -7.7249   15.8625 N   0  0  0  0  0  0  0  0  0  0  0  0
   -0.9307  -12.0058   15.1246 C   0  0  0  0  0  0  0  0  0  0  0  0
    7.0187   -7.4798   18.5816 Cl  0  0  0  0  0  0  0  0  0  0  0  0
    7.9641   -7.1920   17.5212 P   0  0  0  0  0  0  0  0  0  0  0  0
    8.2356   -7.1965   18.1930 F   0  0  0  0  0  0  0  0  0  0  0  0
   10.8260   -4.0536   20.1163 F   0  0  0  0  0  0  0  0  0  0  0  0
    9.6847   -5.6204   17.7148 C   0  0  0  0  0  0  0  0  0  0  0  0
    4.6611   -7.5785   15.6214 F   0  0  0  0  0  0  0  0  0  0  0  0
   10.3845   -4.0170   18.8900 C   0  0  0  0  0  0  0  0  0  0  0  0
   11.1893   -5.5162   15.8584 Cl  0  0  0  0  0  0  0  0  0  0  0  0
   10.7365   -3.1655   17.0898 O   0  0  0  0  0  0  0  0  0  0  0  0
   10.8195   -4.6478   19.1164 P   0  0  0  0  0  0  0  0  0  0  0  0
    4.1673   -7.3793   15.9434 F   0  0  0  0  0  0  0  0  0  0  0  0
   -0.9393  -10.4777   13.1640 C   0  0  0  0  0  0  0  0  0  0  0  0
   11.6880   -4.6478   17.1775 He  0  0  0  0  0  0  0  0  0  0  0  0
    5.7391   -8.9378   18.6675 He  0  0  0  0  0  0  0  0  0  0  0  0
    8.1562   -7.6416   17.2022 He  0  0  0  0  0  0  0  0  0  0  0  0
    0.1449  -10.7810   15.2409 He  0  0  0  0  0  0  0  0  0  0  0  0
    6.7686   -7.5226   16.5888 He  0  0  0  0  0  0  0  0  0  0  0  0
    6.5747   -7.1404   18.2788 He  0  0  0  0  0  0  0  0  0  0  0  0
   10.6862   -4.3736   16.3123 He  0  0  0  0  0  0  0  0  0  0  0  0
   -0.3145   -9.4512   13.9281 He  0  0  0  0  0  0  0  0  0  0  0  0
    8.1431   -7.8352   15.4759 He  0  0  0  0  0  0  0  0  0  0  0  0
    5.6700   -6.7229   17.7624 He  0  0  0  0  0  0  0  0  0  0  0  0
  1  3  4  0
  1  5  4  0
  1  6  1  0
  1 10  3  0
  1 11  2  0
  1 12  3  0
  1 13  1  0
  1 15  1  0
  1 18  4  0
  1 19  3  0
  1 22  2  0
  1 23  2  0
  2  6  1  0
  2  7  4  0
  2 14  4  0
  2 17  4  0
  3  9  3  0
  3 12  2  0
  3 14  4  0
  3 21  1  0
  3 22  3  0
  4  5  1  0
  4  8  3  0
  4 16  4  0
  4 22  4  0
  4 24  3  0
  5 14  3  0
  5 15  1  0
  5 21  4  0
  5 23  1  0
  6  7  2  0
  6 10  4  0
  6 11  3  0
  6 17  4  0
  6 18  3  0
  6 23  3  0
  6 24  1  0
  7 11  1  0
  7 16  2  0
  7 17  2  0
  7 23  1  0
  8 11  1  0
  8 19  3  0
  8 21  1  0
  8 22  2  0
  8 24  4  0
  9 10  4  0
  9 15  2  0
  9 17  3  0
  9 20  1  0
  9 23  1  0
 10 11  4  0
 10 12  4  0
 10 13  1  0
 10 15  3  0
 10 16  2  0
 10 17  1  0
 10 18  3  0
 10 19  3  0
 10 21  1  0
 11 12  2  0
 11 16  1  0
 11 17  1  0
 11 21  1  0
 11 23  4  0
 12 16  1  0
 12 17  1  0
 12 20  2  0
 12 23  3  0
 13 17  4  0
 13 18  3  0
 13 20  3  0
 13 22  1  0
 14 15  2  0
 14 17  4  0
 14 18  4  0
 14 19  3  0
 14 21  4  0
 14 22  2  0
 14 24  2  0
 15 22  3  0
 15 23  3  0
 15 24  3  0
 17 23  2  0
 18 19  4  0
 19 20  3  0
 20 21  2  0
 20 22  1  0
 20 24  3  0
 21 22  4  0
 21 24  4  0
 23 24  2  0
M  END
$$$$

 Created by Python create_sdf_string function

 34 11  0  0  0  0  0  0  0  0999 V2000
    7.9476   -9.0781   16.9309 F   0  0  0  0  0  0  0  0  0  0  0  0
   10.1213   -5.6621   19.8997 F   0  0  0  0  0  0  0  0  0  0  0  0
   10.9637   -3.9621   17.5320 C   0  0  0  0  0  0  0  0  0  0  0  0
    5.6957   -8.5907   18.3951 F   0  0  0  0  0  0  0  0  0  0  0  0
    2.6794   -8.9050   16.4242 C   0  0  0  0  0  0  0  0  0  0  0  0
    2.0567   -9.1430   14.9693 O   0  0  0  0  0  0  0  0  0  0  0  0
    0.9008   -9.9419   14.8401 C   0  0  0  0  0  0  0  0  0  0  0  0
   10.5421   -4.8941   19.8272 F   0  0  0  0  0  0  0  0  0  0  0  0
    8.3945   -7.7397   16.9482 C   0  0  0  0  0  0  0  0  0  0  0  0
    8.9692   -6.1273   18.2393 C   0  0  0  0  0  0  0  0  0  0  0  0
    0.2794  -10.9429   15.5154 C   0  0  0  0  0  0  0  0  0  0  0  0
    6.3681   -7.7508   16.5499 C   0  0  0  0  0  0  0  0  0  0  0  0
   -1.3626  -11.4711   13.9958 C   0  0  0  0  0  0  0  0  0  0  0  0
    4.1229   -8.2048   17.4188 C   0  0  0  0  0  0  0  0  0  0  0  0
    3.1105   -8.7303   15.6519 C   0  0  0  0  0  0  0  0  0  0  0  0
    7.2582   -7.8156   15.9881 F   0  0  0  0  0  0  0  0  0  0  0  0
   -0.7571  -11.7402   15.1213 C   0  0  0  0  0  0  0  0  0  0  0  0
    6.6385   -7.4234   17.9803 C   0  0  0  0  0  0  0  0  0  0  0  0
   10.5959   -4.0807   16.2892 C   0  0  0  0  0  0  0  0  0  0  0  0
    6.9757   -7.4324   18.5192 F   0  0  0  0  0  0  0  0  0  0  0  0
    8.2882   -7.0514   17.3939 C   0  0  0  0  0  0  0  0  0  0  0  0
    8.7209   -7.3581   18.0813 F   0  0  0  0  0  0  0  0  0  0  0  0
   10.8148   -4.0755   20.5113 F   0  0  0  0  0  0  0  0  0  0  0  0
    0.1507   -9.7272   13.6426 C   0  0  0  0  0  0  0  0  0  0  0  0
    8.2995   -7.9852   15.3697 F   0  0  0  0  0  0  0  0  0  0  0  0
    9.6300   -5.6314   17.8079 C   0  0  0  0  0  0  0  0  0  0  0  0
    4.7806   -7.8320   15.4630 F   0  0  0  0  0  0  0  0  0  0  0  0
   10.7456   -3.9816   18.8507 C   0  0  0  0  0  0  0  0  0  0  0  0
    5.6365   -7.6345   17.4188 C   0  0  0  0  0  0  0  0  0  0  0  0
   10.3778   -4.5614   16.2485 C   0  0  0  0  0  0  0  0  0  0  0  0
   11.2291   -3.2825   16.9693 C   0  0  0  0  0  0  0  0  0  0  0  0
   10.7996   -4.2342   19.2484 C   0  0  0  0  0  0  0  0  0  0  0  0
    3.9785   -8.0522   16.1975 C   0  0  0  0  0  0  0  0  0  0  0  0
   -0.9261  -10.4725   13.2774 C   0  0  0  0  0  0  0  0  0  0  0  0
  2  8  1  0
  6  7  1  0
  7 11  4  0
  7 24  4  0
 11 17  4  0
 13 17  4  0
 13 34  4  0
 19 30  4  0
 19 31  4  0
 24 34  4  0
 28 32  4  0
M  END
$$$$

 Created by Python create_sdf_string function

 34105  0  0  0  0  0  0  0  0999 V2000
   10.1935   -5.1595   19.5657 C   0  0  0  0  0  0  0  0  0  0  0  0
    2.2534   -9.0428   16.6218 C   0  0  0  0  0  0  0  0  0  0  0  0
    2.4154   -9.8749   15.6791 N   0  0  0  0  0  0  0  0  0  0  0  0
   10.5133   -4.6831   19.7876 F   0  0  0  0  0  0  0  0  0  0  0  0
    8.9657   -5.9947   18.6716 S   0  0  0  0  0  0  0  0  0  0  0  0
   -0.2508  -11.1013   15.0128 F   0  0  0  0  0  0  0  0  0  0  0  0
    7.2211   -8.6081   16.9881 C   0  0  0  0  0  0  0  0  0  0  0  0
   -1.6461  -12.1256   13.9328 C   0  0  0  0  0  0  0  0  0  0  0  0
    4.8913   -9.2675   14.1510 S   0  0  0  0  0  0  0  0  0  0  0  0
   -0.8315  -12.2456   15.0292 C   0  0  0  0  0  0  0  0  0  0  0  0
    5.8078   -5.8984   17.7638 C   0  0  0  0  0  0  0  0  0  0  0  0
   10.8785   -3.7765   16.7067 C   0  0  0  0  0  0  0  0  0  0  0  0
    8.2170   -7.4453   16.2248 F   0  0  0  0  0  0  0  0  0  0  0  0
    8.4270   -7.4468   17.6490 F   0  0  0  0  0  0  0  0  0  0  0  0
   10.6062   -3.9331   20.0927 N   0  0  0  0  0  0  0  0  0  0  0  0
    8.7263   -8.0784   15.6069 Br  0  0  0  0  0  0  0  0  0  0  0  0
    9.6048   -5.7099   17.7618 C   0  0  0  0  0  0  0  0  0  0  0  0
    4.8494   -7.8843   15.3393 F   0  0  0  0  0  0  0  0  0  0  0  0
   10.3876   -3.6459   18.4911 C   0  0  0  0  0  0  0  0  0  0  0  0
    9.9615   -3.9067   16.7703 C   0  0  0  0  0  0  0  0  0  0  0  0
   11.2793   -3.1835   16.8912 C   0  0  0  0  0  0  0  0  0  0  0  0
   10.9433   -3.2715   20.0078 S   0  0  0  0  0  0  0  0  0  0  0  0
    3.6249   -6.9739   16.4578 O   0  0  0  0  0  0  0  0  0  0  0  0
   -0.0791  -10.1633   13.5159 C   0  0  0  0  0  0  0  0  0  0  0  0
    9.1041   -8.9635   16.7420 He  0  0  0  0  0  0  0  0  0  0  0  0
   13.4607   -3.0521   18.6154 He  0  0  0  0  0  0  0  0  0  0  0  0
    4.8873   -8.6063   19.2536 He  0  0  0  0  0  0  0  0  0  0  0  0
    0.6442  -10.0955   14.8542 He  0  0  0  0  0  0  0  0  0  0  0  0
   10.0892   -7.2830   16.5073 He  0  0  0  0  0  0  0  0  0  0  0  0
    4.9246   -7.7461   14.8671 He  0  0  0  0  0  0  0  0  0  0  0  0
    7.8989   -8.5750   15.3112 He  0  0  0  0  0  0  0  0  0  0  0  0
    6.5253   -6.9705   18.4720 He  0  0  0  0  0  0  0  0  0  0  0  0
    0.8377  -10.2182   13.7762 He  0  0  0  0  0  0  0  0  0  0  0  0
    6.9298   -7.8962   18.7767 He  0  0  0  0  0  0  0  0  0  0  0  0
  1  4  1  0
  1  5  1  0
  1  6  2  0
  1  7  2  0
  1  9  2  0
  1 11  4  0
  1 15  3  0
  1 19  2  0
  2 12  3  0
  2 13  3  0
  2 18  3  0
  2 20  2  0
  2 22  1  0
  2 23  2  0
  2 24  2  0
  3  5  1  0
  3  8  1  0
  3  9  4  0
  3 10  1  0
  3 13  4  0
  3 15  4  0
  3 17  4  0
  3 19  1  0
  3 21  3  0
  3 22  4  0
  3 24  3  0
  4  5  2  0
  4  6  2  0
  4 14  4  0
  4 20  4  0
  5  6  3  0
  5  8  4  0
  5 11  4  0
  5 12  2  0
  5 14  1  0
  5 17  3  0
  5 20  4  0
  5 22  3  0
  5 24  4  0
  6  9  4  0
  6 10  4  0
  6 18  4  0
  6 22  4  0
  6 23  3  0
  6 24  2  0
  7 12  2  0
  7 13  2  0
  7 16  3  0
  7 17  3  0
  7 18  2  0
  7 19  3  0
  7 20  1  0
  7 21  3  0
  7 22  2  0
  8 10  4  0
  8 14  2  0
  8 20  3  0
  8 21  3  0
  8 22  2  0
  9 10  3  0
  9 11  2  0
  9 15  4  0
  9 16  2  0
  9 21  1  0
  9 22  1  0
  9 23  4  0
  9 24  4  0
 10 13  2  0
 10 15  2  0
 10 18  4  0
 10 19  2  0
 10 23  2  0
 11 12  4  0
 11 17  2  0
 11 20  2  0
 12 14  2  0
 12 21  4  0
 12 22  3  0
 12 23  2  0
 13 14  4  0
 13 15  4  0
 13 17  2  0
 13 18  4  0
 13 19  1  0
 14 20  4  0
 14 23  1  0
 15 18  1  0
 15 20  3  0
 15 22  1  0
 16 17  1  0
 16 18  1  0
 16 22  3  0
 16 23  1  0
 17 21  1  0
 17 23  1  0
 17 24  1  0
 18 21  1  0
 18 22  1  0
 18 24  3  0
 19 20  3  0
 20 22  4  0
 20 24  2  0
 21 23  4  0
 22 23  1  0
 23 24  2  0
M  END
$$$$

 Created by Python create_sdf_string function

 34 21  0  0  0  0  0  0  0  0999 V2000
    8.6552   -8.3715   16.7251 F   0  0  0  0  0  0  0  0  0  0  0  0
    9.9934   -5.2755   19.7199 C   0  0  0  0  0  0  0  0  0  0  0  0
   11.2470   -2.7704   18.3668 C   0  0  0  0  0  0  0  0  0  0  0  0
    5.4208   -8.6370   18.1327 F   0  0  0  0  0  0  0  0  0  0  0  0
    2.3941   -9.0529   16.2468 C   0  0  0  0  0  0  0  0  0  0  0  0
    1.9935   -9.3197   15.4888 N   0  0  0  0  0  0  0  0  0  0  0  0
    0.9259  -10.1087   15.0428 C   0  0  0  0  0  0  0  0  0  0  0  0
   10.3017   -4.9133   20.2474 C   0  0  0  0  0  0  0  0  0  0  0  0
    9.1977   -6.9543   16.5764 F   0  0  0  0  0  0  0  0  0  0  0  0
    9.2114   -6.1367   18.5150 C   0  0  0  0  0  0  0  0  0  0  0  0
   -0.0274  -11.1881   15.5082 C   0  0  0  0  0  0  0  0  0  0  0  0
    6.9763   -8.1627   16.7574 C   0  0  0  0  0  0  0  0  0  0  0  0
   -1.2768  -11.8176   13.9348 C   0  0  0  0  0  0  0  0  0  0  0  0
    4.5898   -8.3284   15.7037 C   0  0  0  0  0  0  0  0  0  0  0  0
    4.1292   -8.9765   15.0294 C   0  0  0  0  0  0  0  0  0  0  0  0
    7.5064   -8.4968   15.5770 F   0  0  0  0  0  0  0  0  0  0  0  0
   -0.9224  -11.9349   15.0958 C   0  0  0  0  0  0  0  0  0  0  0  0
    6.0843   -6.9817   17.3427 F   0  0  0  0  0  0  0  0  0  0  0  0
   11.0059   -3.6644   16.3997 C   0  0  0  0  0  0  0  0  0  0  0  0
    6.4147   -7.0174   18.5521 F   0  0  0  0  0  0  0  0  0  0  0  0
    7.8983   -7.2378   16.4625 C   0  0  0  0  0  0  0  0  0  0  0  0
    8.4573   -7.3128   17.8470 F   0  0  0  0  0  0  0  0  0  0  0  0
   10.7028   -3.8889   20.4517 N   0  0  0  0  0  0  0  0  0  0  0  0
    0.7675   -9.8706   13.9978 C   0  0  0  0  0  0  0  0  0  0  0  0
    8.5030   -8.1822   15.5084 F   0  0  0  0  0  0  0  0  0  0  0  0
    9.6278   -5.3951   17.5684 C   0  0  0  0  0  0  0  0  0  0  0  0
    4.6522   -8.4073   15.9684 C   0  0  0  0  0  0  0  0  0  0  0  0
   10.7452   -3.7471   18.6370 C   0  0  0  0  0  0  0  0  0  0  0  0
    6.8925   -7.8150   18.1209 F   0  0  0  0  0  0  0  0  0  0  0  0
    9.9143   -4.6013   16.9108 C   0  0  0  0  0  0  0  0  0  0  0  0
   11.3904   -3.2253   16.7527 C   0  0  0  0  0  0  0  0  0  0  0  0
   10.8753   -3.4590   20.3465 C   0  0  0  0  0  0  0  0  0  0  0  0
    3.6493   -8.1551   16.5844 C   0  0  0  0  0  0  0  0  0  0  0  0
   -0.3401  -10.6845   13.3710 C   0  0  0  0  0  0  0  0  0  0  0  0
  1 25  1  0
  2  8  1  0
  2 10  1  0
  3 28  4  0
  3 31  4  0
  5  6  4  0
  5 33  4  0
  6  7  1  0
  7 11  4  0
  7 24  4  0
 10 22  1  0
 10 26  1  0
 11 17  4  0
 13 17  4  0
 13 34  4  0
 16 25  1  0
 19 31  4  0
 20 29  1  0
 23 32  1  0
 24 34  4  0
 26 30  4  0
M  END
$$$$

 Created by Python create_sdf_string function

 34 97  0  0  0  0  0  0  0  0999 V2000
   10.2386   -5.2843   19.7850 C   0  0  0  0  0  0  0  0  0  0  0  0
   11.2730   -2.2080   19.5089 C   0  0  0  0  0  0  0  0  0  0  0  0
    2.2957   -8.5318   17.1795 C   0  0  0  0  0  0  0  0  0  0  0  0
    0.5046   -8.9721   16.1429 S   0  0  0  0  0  0  0  0  0  0  0  0
    0.7873   -9.9368   14.7884 C   0  0  0  0  0  0  0  0  0  0  0  0
   10.7776   -5.2760   20.3154 S   0  0  0  0  0  0  0  0  0  0  0  0
    9.1748   -7.1964   17.7324 F   0  0  0  0  0  0  0  0  0  0  0  0
    0.1953  -11.8784   15.7059 C   0  0  0  0  0  0  0  0  0  0  0  0
    7.3172   -6.4103   15.1375 C   0  0  0  0  0  0  0  0  0  0  0  0
   -0.8998  -12.9647   13.4082 C   0  0  0  0  0  0  0  0  0  0  0  0
    3.3996   -9.7119   14.8286 S   0  0  0  0  0  0  0  0  0  0  0  0
    3.0385   -8.7826   16.5800 N   0  0  0  0  0  0  0  0  0  0  0  0
    8.8175   -9.2171   13.3797 F   0  0  0  0  0  0  0  0  0  0  0  0
   -1.1030  -11.7792   15.1134 Cl  0  0  0  0  0  0  0  0  0  0  0  0
    5.3706   -6.5611   17.7801 F   0  0  0  0  0  0  0  0  0  0  0  0
   11.2120   -3.8952   16.2924 C   0  0  0  0  0  0  0  0  0  0  0  0
    5.5652   -6.0919   19.1544 F   0  0  0  0  0  0  0  0  0  0  0  0
   10.3758   -4.2104   20.5736 N   0  0  0  0  0  0  0  0  0  0  0  0
    1.1597   -9.7006   14.0742 C   0  0  0  0  0  0  0  0  0  0  0  0
    8.6594   -8.3845   15.8511 N   0  0  0  0  0  0  0  0  0  0  0  0
    9.0287   -4.8859   18.2929 C   0  0  0  0  0  0  0  0  0  0  0  0
   10.2162   -3.6168   18.4479 C   0  0  0  0  0  0  0  0  0  0  0  0
    6.6641   -8.3728   18.8163 P   0  0  0  0  0  0  0  0  0  0  0  0
   11.1122   -4.9672   16.9500 S   0  0  0  0  0  0  0  0  0  0  0  0
   12.1468   -3.5331   16.8485 C   0  0  0  0  0  0  0  0  0  0  0  0
    3.6875   -7.1012   15.6358 O   0  0  0  0  0  0  0  0  0  0  0  0
   -0.0930  -10.7173   13.3542 C   0  0  0  0  0  0  0  0  0  0  0  0
    8.1431   -6.7317   18.6716 He  0  0  0  0  0  0  0  0  0  0  0  0
    5.7435   -8.2070   17.8950 He  0  0  0  0  0  0  0  0  0  0  0  0
    9.7198   -6.7252   16.6744 He  0  0  0  0  0  0  0  0  0  0  0  0
    6.8939   -5.5367   17.5566 He  0  0  0  0  0  0  0  0  0  0  0  0
    7.9882   -7.2382   17.3006 He  0  0  0  0  0  0  0  0  0  0  0  0
    4.2429   -8.8179   15.7846 He  0  0  0  0  0  0  0  0  0  0  0  0
    9.9915   -2.6603   20.7488 He  0  0  0  0  0  0  0  0  0  0  0  0
  1  6  2  0
  1  8  2  0
  1 11  3  0
  1 15  1  0
  1 23  3  0
  2  3  3  0
  2  5  1  0
  2  8  1  0
  2  9  1  0
  2 13  1  0
  2 14  2  0
  2 24  4  0
  2 25  4  0
  2 27  1  0
  3  7  4  0
  3 11  1  0
  3 16  4  0
  4  6  1  0
  4  7  2  0
  4  8  4  0
  4 10  1  0
  4 12  4  0
  4 13  3  0
  4 16  4  0
  4 17  4  0
  4 22  1  0
  4 25  2  0
  4 26  4  0
  5  8  4  0
  5 19  4  0
  6  8  4  0
  6  9  3  0
  6 11  2  0
  6 15  3  0
  6 23  2  0
  6 25  3  0
  7  8  3  0
  7 10  4  0
  7 12  3  0
  7 14  3  0
  7 24  1  0
  7 25  4  0
  7 26  3  0
  8 10  1  0
  8 14  4  0
  8 17  4  0
  8 24  2  0
  8 26  1  0
  9 12  4  0
  9 13  4  0
  9 14  3  0
  9 15  1  0
  9 16  4  0
  9 18  4  0
  9 21  2  0
 10 11  4  0
 10 13  4  0
 10 14  4  0
 10 23  2  0
 10 27  3  0
 11 12  4  0
 11 13  2  0
 11 17  4  0
 11 19  2  0
 11 22  3  0
 11 27  4  0
 12 14  2  0
 12 18  4  0
 12 20  2  0
 12 21  4  0
 12 23  3  0
 13 14  3  0
 13 17  1  0
 13 21  1  0
 13 24  2  0
 14 17  4  0
 14 23  3  0
 14 26  1  0
 15 17  4  0
 15 22  2  0
 15 23  4  0
 15 26  2  0
 16 25  4  0
 17 18  2  0
 17 23  2  0
 17 26  4  0
 18 27  2  0
 19 23  4  0
 19 27  4  0
 21 22  4  0
 21 26  3  0
 22 23  2  0
 22 24  4  0
 22 27  2  0
 23 25  1  0
 24 25  2  0
 26 27  3  0
M  END
$$$$

 Created by Python create_sdf_string function

 34 19  0  0  0  0  0  0  0  0999 V2000
    8.5023   -6.8927   18.0866 C   0  0  0  0  0  0  0  0  0  0  0  0
    9.9994   -5.4383   19.8620 C   0  0  0  0  0  0  0  0  0  0  0  0
   11.2624   -2.9280   18.0364 C   0  0  0  0  0  0  0  0  0  0  0  0
    5.8517   -8.2595   17.4130 C   0  0  0  0  0  0  0  0  0  0  0  0
    2.3913   -8.8243   16.9426 C   0  0  0  0  0  0  0  0  0  0  0  0
    1.4175   -9.1139   16.4206 C   0  0  0  0  0  0  0  0  0  0  0  0
    0.6036  -10.2490   15.1779 C   0  0  0  0  0  0  0  0  0  0  0  0
   10.3314   -5.4020   20.5456 C   0  0  0  0  0  0  0  0  0  0  0  0
    9.0079   -7.4339   17.7507 C   0  0  0  0  0  0  0  0  0  0  0  0
    9.0730   -6.5022   16.8727 C   0  0  0  0  0  0  0  0  0  0  0  0
   -0.2122  -11.0969   15.7706 C   0  0  0  0  0  0  0  0  0  0  0  0
    7.3034   -7.0012   15.5380 C   0  0  0  0  0  0  0  0  0  0  0  0
   -0.8578  -11.8822   13.7417 C   0  0  0  0  0  0  0  0  0  0  0  0
    3.1217   -9.0039   15.1969 C   0  0  0  0  0  0  0  0  0  0  0  0
    2.7508   -8.8397   16.2772 C   0  0  0  0  0  0  0  0  0  0  0  0
    8.1769   -8.5566   14.9956 C   0  0  0  0  0  0  0  0  0  0  0  0
   -0.9476  -11.9706   15.0071 C   0  0  0  0  0  0  0  0  0  0  0  0
    5.6193   -7.4979   17.2751 C   0  0  0  0  0  0  0  0  0  0  0  0
   11.3105   -4.0492   16.1731 C   0  0  0  0  0  0  0  0  0  0  0  0
    5.9926   -7.1957   18.6591 O   0  0  0  0  0  0  0  0  0  0  0  0
    7.4553   -6.3362   17.2217 C   0  0  0  0  0  0  0  0  0  0  0  0
    7.8558   -7.3529   16.9017 C   0  0  0  0  0  0  0  0  0  0  0  0
   10.4371   -4.0841   20.5189 N   0  0  0  0  0  0  0  0  0  0  0  0
    0.8242  -10.0933   14.0347 C   0  0  0  0  0  0  0  0  0  0  0  0
    8.5829   -8.4284   15.8399 C   0  0  0  0  0  0  0  0  0  0  0  0
    9.8366   -4.8046   18.2070 C   0  0  0  0  0  0  0  0  0  0  0  0
    4.4006   -8.5615   15.8523 C   0  0  0  0  0  0  0  0  0  0  0  0
   10.5722   -3.7257   18.4982 C   0  0  0  0  0  0  0  0  0  0  0  0
    6.6866   -8.1320   18.0217 C   0  0  0  0  0  0  0  0  0  0  0  0
   10.1836   -4.5527   16.6700 C   0  0  0  0  0  0  0  0  0  0  0  0
   11.8133   -3.1899   16.7411 C   0  0  0  0  0  0  0  0  0  0  0  0
   10.5394   -3.5720   21.1048 C   0  0  0  0  0  0  0  0  0  0  0  0
    3.8654   -7.7047   16.2815 C   0  0  0  0  0  0  0  0  0  0  0  0
   -0.0410  -10.9996   13.2377 C   0  0  0  0  0  0  0  0  0  0  0  0
  1  9  1  0
  2  8  4  0
  3 28  4  0
  3 31  4  0
  5  6  4  0
  5 15  4  0
  7 11  4  0
  7 24  4  0
  8 23  4  0
 11 17  4  0
 13 17  4  0
 13 34  4  0
 14 15  4  0
 16 25  1  0
 19 30  4  0
 19 31  4  0
 23 32  1  0
 24 34  4  0
 26 28  4  0
M  END
$$$$

 Created by Python create_sdf_string function

 34 99  0  0  0  0  0  0  0  0999 V2000
    8.7471   -7.3140   17.0675 F   0  0  0  0  0  0  0  0  0  0  0  0
   10.3239   -5.7404   19.7469 C   0  0  0  0  0  0  0  0  0  0  0  0
   11.5562   -4.1282   17.0231 Se  0  0  0  0  0  0  0  0  0  0  0  0
    1.6268   -9.1976   15.0993 N   0  0  0  0  0  0  0  0  0  0  0  0
    0.3361   -9.6058   14.7849 C   0  0  0  0  0  0  0  0  0  0  0  0
   10.4657   -5.5717   20.5597 C   0  0  0  0  0  0  0  0  0  0  0  0
    9.5663   -7.5503   16.8776 N   0  0  0  0  0  0  0  0  0  0  0  0
   -0.3540  -10.9423   15.8140 C   0  0  0  0  0  0  0  0  0  0  0  0
   -1.0447  -11.7744   13.7074 C   0  0  0  0  0  0  0  0  0  0  0  0
    2.9926   -9.0004   15.8279 Cl  0  0  0  0  0  0  0  0  0  0  0  0
    6.5878   -9.0492   15.0734 Se  0  0  0  0  0  0  0  0  0  0  0  0
    5.5757   -8.6042   16.1603 C   0  0  0  0  0  0  0  0  0  0  0  0
   11.0164   -4.5558   16.3277 N   0  0  0  0  0  0  0  0  0  0  0  0
    5.8913   -6.8084   18.4328 O   0  0  0  0  0  0  0  0  0  0  0  0
    6.1686   -5.8910   17.1443 S   0  0  0  0  0  0  0  0  0  0  0  0
    7.7146   -7.7698   16.5663 F   0  0  0  0  0  0  0  0  0  0  0  0
   10.4446   -3.6745   19.9707 N   0  0  0  0  0  0  0  0  0  0  0  0
    1.0336  -10.4648   13.1475 C   0  0  0  0  0  0  0  0  0  0  0  0
    8.4096   -7.9603   15.7068 S   0  0  0  0  0  0  0  0  0  0  0  0
   10.0020   -4.5950   18.4817 C   0  0  0  0  0  0  0  0  0  0  0  0
    4.4674   -8.9402   16.3281 C   0  0  0  0  0  0  0  0  0  0  0  0
    9.5645   -4.0417   18.4114 C   0  0  0  0  0  0  0  0  0  0  0  0
   11.5142   -3.7537   17.4823 C   0  0  0  0  0  0  0  0  0  0  0  0
   10.4291   -1.7186   19.9714 C   0  0  0  0  0  0  0  0  0  0  0  0
    3.9460   -7.5995   17.4164 P   0  0  0  0  0  0  0  0  0  0  0  0
    0.3049  -11.1451   13.0948 C   0  0  0  0  0  0  0  0  0  0  0  0
    5.0644   -8.1764   15.6684 He  0  0  0  0  0  0  0  0  0  0  0  0
    1.9097   -9.3482   17.1108 He  0  0  0  0  0  0  0  0  0  0  0  0
    9.1538   -4.2505   16.5268 He  0  0  0  0  0  0  0  0  0  0  0  0
    7.3437   -8.7606   15.6154 He  0  0  0  0  0  0  0  0  0  0  0  0
    2.1900   -5.9456   17.7900 He  0  0  0  0  0  0  0  0  0  0  0  0
   -0.7206  -11.8564   15.0392 He  0  0  0  0  0  0  0  0  0  0  0  0
    7.9786   -5.9205   19.3137 He  0  0  0  0  0  0  0  0  0  0  0  0
   10.2243   -4.5343   17.4057 He  0  0  0  0  0  0  0  0  0  0  0  0
  1  7  2  0
  1 12  1  0
  1 16  2  0
  1 18  2  0
  1 23  2  0
  2  6  3  0
  2  9  2  0
  2 10  4  0
  2 11  2  0
  2 24  2  0
  2 25  2  0
  3  4  4  0
  3  8  1  0
  3  9  1  0
  3 10  2  0
  3 17  2  0
  3 20  2  0
  3 21  4  0
  3 22  3  0
  3 23  3  0
  4  5  3  0
  4  7  3  0
  4  8  3  0
  4  9  2  0
  4 12  4  0
  4 13  3  0
  4 14  2  0
  4 16  3  0
  4 17  3  0
  4 26  4  0
  5  7  1  0
  5  9  1  0
  5 15  4  0
  5 17  3  0
  5 18  1  0
  6  7  3  0
  6 10  1  0
  6 11  1  0
  6 12  2  0
  6 16  4  0
  7  8  2  0
  7 12  3  0
  7 13  2  0
  7 14  3  0
  7 16  4  0
  7 18  2  0
  7 19  4  0
  7 20  4  0
  7 21  1  0
  7 22  3  0
  7 23  4  0
  8 10  4  0
  8 24  3  0
  9 10  4  0
  9 13  3  0
  9 15  1  0
  9 22  2  0
  9 25  3  0
  9 26  4  0
 10 15  2  0
 10 16  3  0
 10 18  1  0
 10 24  3  0
 10 25  4  0
 11 12  1  0
 11 16  4  0
 11 17  2  0
 11 22  1  0
 11 24  4  0
 11 25  3  0
 12 17  3  0
 12 18  3  0
 12 20  4  0
 12 24  2  0
 12 25  1  0
 12 26  1  0
 13 24  2  0
 14 17  1  0
 14 20  1  0
 15 16  2  0
 15 18  4  0
 15 19  2  0
 15 24  2  0
 15 25  2  0
 17 20  1  0
 17 21  3  0
 17 25  1  0
 18 21  4  0
 18 26  4  0
 19 25  2  0
 19 26  2  0
 20 22  4  0
 20 24  4  0
 21 24  1  0
 21 26  3  0
 22 25  1  0
 23 24  1  0
 24 25  2  0
 24 26  4  0
M  END
$$$$

 Created by Python create_sdf_string function

 34 18  0  0  0  0  0  0  0  0999 V2000
    8.6700   -7.5049   17.3035 C   0  0  0  0  0  0  0  0  0  0  0  0
   10.0296   -5.8995   19.9813 C   0  0  0  0  0  0  0  0  0  0  0  0
   11.4313   -3.5024   16.7726 C   0  0  0  0  0  0  0  0  0  0  0  0
    4.8901   -8.2033   16.0459 C   0  0  0  0  0  0  0  0  0  0  0  0
    1.8830   -9.2358   16.9332 C   0  0  0  0  0  0  0  0  0  0  0  0
    1.4980   -8.9967   15.6231 C   0  0  0  0  0  0  0  0  0  0  0  0
    0.6926  -10.0213   14.9666 C   0  0  0  0  0  0  0  0  0  0  0  0
   10.4505   -5.2270   20.8411 C   0  0  0  0  0  0  0  0  0  0  0  0
    9.0536   -7.5119   17.2825 C   0  0  0  0  0  0  0  0  0  0  0  0
    9.3378   -4.6793   16.4942 C   0  0  0  0  0  0  0  0  0  0  0  0
   -0.2383  -10.7922   15.7121 C   0  0  0  0  0  0  0  0  0  0  0  0
    7.4026   -8.4670   15.8128 C   0  0  0  0  0  0  0  0  0  0  0  0
   -0.8340  -11.8800   13.7167 C   0  0  0  0  0  0  0  0  0  0  0  0
    2.5643   -8.5339   15.7331 C   0  0  0  0  0  0  0  0  0  0  0  0
    2.6886   -7.2645   16.4357 C   0  0  0  0  0  0  0  0  0  0  0  0
    6.4687   -8.9294   15.5360 C   0  0  0  0  0  0  0  0  0  0  0  0
   -0.9773  -11.6909   14.9992 C   0  0  0  0  0  0  0  0  0  0  0  0
    5.6677   -8.4224   16.2536 C   0  0  0  0  0  0  0  0  0  0  0  0
   10.8849   -4.2943   16.0155 N   0  0  0  0  0  0  0  0  0  0  0  0
    6.1023   -6.8589   18.5644 O   0  0  0  0  0  0  0  0  0  0  0  0
    6.6389   -7.0285   17.5861 C   0  0  0  0  0  0  0  0  0  0  0  0
    7.6731   -7.8458   16.6363 C   0  0  0  0  0  0  0  0  0  0  0  0
   10.5837   -3.8906   20.5160 N   0  0  0  0  0  0  0  0  0  0  0  0
    0.8451  -10.1748   13.6035 C   0  0  0  0  0  0  0  0  0  0  0  0
    8.6440   -8.1612   15.5998 C   0  0  0  0  0  0  0  0  0  0  0  0
   10.0930   -4.3505   18.6726 C   0  0  0  0  0  0  0  0  0  0  0  0
    3.8845   -9.1004   16.4360 C   0  0  0  0  0  0  0  0  0  0  0  0
   10.0643   -4.3512   18.1458 C   0  0  0  0  0  0  0  0  0  0  0  0
    8.1133   -6.1734   18.1654 C   0  0  0  0  0  0  0  0  0  0  0  0
   10.1013   -4.4707   16.8135 C   0  0  0  0  0  0  0  0  0  0  0  0
   11.5734   -3.3655   17.0819 C   0  0  0  0  0  0  0  0  0  0  0  0
   10.8501   -3.2961   20.2436 C   0  0  0  0  0  0  0  0  0  0  0  0
    3.9364   -7.7059   16.7159 C   0  0  0  0  0  0  0  0  0  0  0  0
    0.0190  -11.1610   12.9648 C   0  0  0  0  0  0  0  0  0  0  0  0
  2  8  4  0
  3 31  4  0
  5  6  4  0
  6  7  1  0
  6 14  1  0
  7 11  4  0
  7 24  4  0
  8 23  4  0
 11 17  4  0
 13 17  4  0
 13 34  4  0
 15 33  4  0
 16 18  1  0
 19 30  4  0
 20 21  2  0
 23 32  4  0
 24 34  4  0
 26 28  4  0
M  END
$$$$

 Created by Python create_sdf_string function

 34 70  0  0  0  0  0  0  0  0999 V2000
    9.8636   -6.1455   19.8357 C   0  0  0  0  0  0  0  0  0  0  0  0
    1.4083   -9.5973   16.5849 B   0  0  0  0  0  0  0  0  0  0  0  0
    0.3915   -9.9216   15.3107 P   0  0  0  0  0  0  0  0  0  0  0  0
   10.0309   -5.1197   20.6811 C   0  0  0  0  0  0  0  0  0  0  0  0
   -0.5987  -10.8549   15.1532 C   0  0  0  0  0  0  0  0  0  0  0  0
    1.5835   -6.4189   15.3027 C   0  0  0  0  0  0  0  0  0  0  0  0
    6.6311   -8.2755   16.0595 C   0  0  0  0  0  0  0  0  0  0  0  0
   -0.7824  -11.1185   14.4827 C   0  0  0  0  0  0  0  0  0  0  0  0
    5.7564   -7.5148   16.8782 F   0  0  0  0  0  0  0  0  0  0  0  0
   11.3832   -4.4177   15.8875 S   0  0  0  0  0  0  0  0  0  0  0  0
    7.8200   -6.7901   18.0958 P   0  0  0  0  0  0  0  0  0  0  0  0
    7.5390   -8.1454   17.1444 C   0  0  0  0  0  0  0  0  0  0  0  0
   10.2809   -3.9939   20.1791 N   0  0  0  0  0  0  0  0  0  0  0  0
    0.9474  -10.3942   13.7743 C   0  0  0  0  0  0  0  0  0  0  0  0
    9.0220   -7.7530   15.5316 C   0  0  0  0  0  0  0  0  0  0  0  0
    9.5813   -4.6458   18.5661 C   0  0  0  0  0  0  0  0  0  0  0  0
    3.5749   -9.1130   16.1718 C   0  0  0  0  0  0  0  0  0  0  0  0
   10.1118   -4.5560   17.7171 C   0  0  0  0  0  0  0  0  0  0  0  0
    6.8538   -5.6890   17.7676 C   0  0  0  0  0  0  0  0  0  0  0  0
    9.1168   -5.0871   16.8155 F   0  0  0  0  0  0  0  0  0  0  0  0
   11.3738   -3.5476   16.4009 C   0  0  0  0  0  0  0  0  0  0  0  0
   -0.0511  -10.7457   13.1756 C   0  0  0  0  0  0  0  0  0  0  0  0
    7.2653   -6.5371   15.5543 He  0  0  0  0  0  0  0  0  0  0  0  0
   11.7067   -4.1312   14.9547 He  0  0  0  0  0  0  0  0  0  0  0  0
    5.3694   -7.8487   15.0927 He  0  0  0  0  0  0  0  0  0  0  0  0
    0.9910   -9.0727   14.0639 He  0  0  0  0  0  0  0  0  0  0  0  0
   10.1368   -7.7088   17.4842 He  0  0  0  0  0  0  0  0  0  0  0  0
   10.2386   -5.2548   16.6774 He  0  0  0  0  0  0  0  0  0  0  0  0
    8.0820   -8.9730   16.7419 He  0  0  0  0  0  0  0  0  0  0  0  0
   -1.2068  -12.5744   13.5763 He  0  0  0  0  0  0  0  0  0  0  0  0
    2.1750   -7.9899   14.7621 He  0  0  0  0  0  0  0  0  0  0  0  0
    5.5004   -7.2415   18.3509 He  0  0  0  0  0  0  0  0  0  0  0  0
    9.4541   -1.3587   20.2554 He  0  0  0  0  0  0  0  0  0  0  0  0
    2.7646   -8.0765   16.2956 He  0  0  0  0  0  0  0  0  0  0  0  0
  1  4  4  0
  1  8  4  0
  1  9  2  0
  1 10  2  0
  1 13  2  0
  1 16  3  0
  1 19  2  0
  1 21  3  0
  2 12  3  0
  2 13  4  0
  2 18  4  0
  3  4  1  0
  3  5  4  0
  3  7  3  0
  3  9  4  0
  3 11  3  0
  3 12  4  0
  3 14  4  0
  3 15  2  0
  4  9  4  0
  4 11  4  0
  4 13  4  0
  4 18  2  0
  5  6  1  0
  5  8  4  0
  5  9  2  0
  5 11  2  0
  5 12  4  0
  5 16  1  0
  5 18  2  0
  5 21  1  0
  6 12  4  0
  6 13  2  0
  6 16  2  0
  6 18  1  0
  6 20  4  0
  7  8  4  0
  7 22  4  0
  8  9  3  0
  8 11  3  0
  8 12  2  0
  8 15  1  0
  8 17  4  0
  8 20  3  0
  9 10  4  0
  9 12  2  0
  9 13  4  0
  9 14  3  0
  9 15  4  0
  9 16  4  0
  9 17  4  0
  9 20  1  0
  9 21  4  0
 10 22  1  0
 11 13  1  0
 11 17  4  0
 11 20  3  0
 12 14  4  0
 12 19  3  0
 12 21  2  0
 13 19  1  0
 13 20  3  0
 13 21  1  0
 14 20  3  0
 14 21  4  0
 14 22  4  0
 15 16  3  0
 15 19  2  0
 15 22  2  0
 16 18  4  0
M  END
$$$$

 Created by Python create_sdf_string function

 34 22  0  0  0  0  0  0  0  0999 V2000
    7.0002   -6.8679   15.5431 C   0  0  0  0  0  0  0  0  0  0  0  0
    9.9162   -5.9094   19.6768 C   0  0  0  0  0  0  0  0  0  0  0  0
   11.4356   -3.6881   15.5407 C   0  0  0  0  0  0  0  0  0  0  0  0
    4.8995   -7.8210   15.5968 C   0  0  0  0  0  0  0  0  0  0  0  0
    1.3319   -9.3739   16.5662 C   0  0  0  0  0  0  0  0  0  0  0  0
    1.6537   -8.4564   14.9895 C   0  0  0  0  0  0  0  0  0  0  0  0
    0.4986  -10.0270   15.1179 C   0  0  0  0  0  0  0  0  0  0  0  0
   10.3533   -5.1292   20.7373 C   0  0  0  0  0  0  0  0  0  0  0  0
    9.1884   -7.8890   17.5538 C   0  0  0  0  0  0  0  0  0  0  0  0
    9.9696   -4.5624   16.5199 C   0  0  0  0  0  0  0  0  0  0  0  0
   -0.5198  -10.9194   15.5495 C   0  0  0  0  0  0  0  0  0  0  0  0
    7.9114   -8.5145   16.5589 C   0  0  0  0  0  0  0  0  0  0  0  0
   -0.9609  -11.8596   13.5381 C   0  0  0  0  0  0  0  0  0  0  0  0
    2.4397   -8.1995   15.1591 C   0  0  0  0  0  0  0  0  0  0  0  0
    2.3537   -7.3142   15.5253 C   0  0  0  0  0  0  0  0  0  0  0  0
    6.3126   -8.0815   16.1394 C   0  0  0  0  0  0  0  0  0  0  0  0
   -1.1077  -11.6802   14.7649 C   0  0  0  0  0  0  0  0  0  0  0  0
    5.5238   -7.7480   16.5422 C   0  0  0  0  0  0  0  0  0  0  0  0
   11.1668   -4.3098   15.6471 C   0  0  0  0  0  0  0  0  0  0  0  0
    5.5273   -7.3689   18.3430 O   0  0  0  0  0  0  0  0  0  0  0  0
    7.7342   -6.7306   17.7128 C   0  0  0  0  0  0  0  0  0  0  0  0
    7.5822   -8.2551   17.2953 C   0  0  0  0  0  0  0  0  0  0  0  0
   10.3214   -3.8683   20.4730 N   0  0  0  0  0  0  0  0  0  0  0  0
    0.6751  -10.1001   13.5788 C   0  0  0  0  0  0  0  0  0  0  0  0
    8.4498   -7.9783   15.4572 C   0  0  0  0  0  0  0  0  0  0  0  0
    9.7740   -4.8466   18.6868 C   0  0  0  0  0  0  0  0  0  0  0  0
    3.5775   -8.6737   16.2605 C   0  0  0  0  0  0  0  0  0  0  0  0
   10.1375   -4.3383   17.8544 C   0  0  0  0  0  0  0  0  0  0  0  0
    6.8441   -6.9210   17.8707 C   0  0  0  0  0  0  0  0  0  0  0  0
    9.5515   -4.8199   16.6679 C   0  0  0  0  0  0  0  0  0  0  0  0
   11.4226   -3.3152   16.4012 C   0  0  0  0  0  0  0  0  0  0  0  0
   10.2347   -3.5646   19.6352 C   0  0  0  0  0  0  0  0  0  0  0  0
    2.5792   -8.3755   16.3971 C   0  0  0  0  0  0  0  0  0  0  0  0
   -0.0644  -11.0743   12.9785 C   0  0  0  0  0  0  0  0  0  0  0  0
  2  8  4  0
  2 26  4  0
  3 19  4  0
  3 31  4  0
  5  7  1  0
  5 33  1  0
  6 14  1  0
  7 11  4  0
  7 24  4  0
  8 23  4  0
 10 28  4  0
 10 30  4  0
 11 17  4  0
 12 22  1  0
 13 17  4  0
 13 34  4  0
 21 29  1  0
 23 32  4  0
 24 34  4  0
 26 28  4  0
 26 32  4  0
 28 30  4  0
M  END
$$$$

 Created by Python create_sdf_string function

 34 72  0  0  0  0  0  0  0  0999 V2000
    5.3327   -6.1084   14.6004 C   0  0  0  0  0  0  0  0  0  0  0  0
    9.9560   -6.3457   19.8426 C   0  0  0  0  0  0  0  0  0  0  0  0
   11.0085   -2.7244   16.8388 C   0  0  0  0  0  0  0  0  0  0  0  0
    0.5548  -10.2283   15.9363 C   0  0  0  0  0  0  0  0  0  0  0  0
   10.0918   -8.7677   17.4306 C   0  0  0  0  0  0  0  0  0  0  0  0
    9.5702   -4.2856   17.2417 C   0  0  0  0  0  0  0  0  0  0  0  0
   -0.6513  -11.0235   15.5103 C   0  0  0  0  0  0  0  0  0  0  0  0
   -0.7306  -12.1175   14.0619 C   0  0  0  0  0  0  0  0  0  0  0  0
    3.3277   -7.8886   15.1895 F   0  0  0  0  0  0  0  0  0  0  0  0
   -1.3580  -11.7753   14.4222 C   0  0  0  0  0  0  0  0  0  0  0  0
   11.0042   -4.4892   15.5687 C   0  0  0  0  0  0  0  0  0  0  0  0
    4.8942   -7.8875   17.9316 O   0  0  0  0  0  0  0  0  0  0  0  0
    8.0326   -8.4943   16.9886 N   0  0  0  0  0  0  0  0  0  0  0  0
   10.5679   -3.7007   20.3384 N   0  0  0  0  0  0  0  0  0  0  0  0
    1.0612   -9.8087   13.5543 C   0  0  0  0  0  0  0  0  0  0  0  0
    9.1195   -7.9994   15.9503 C   0  0  0  0  0  0  0  0  0  0  0  0
    9.9904   -4.5831   18.1554 C   0  0  0  0  0  0  0  0  0  0  0  0
    3.5917   -8.6052   16.9332 F   0  0  0  0  0  0  0  0  0  0  0  0
    8.6830   -4.3742   18.1411 Br  0  0  0  0  0  0  0  0  0  0  0  0
   11.0102   -3.0017   16.2625 C   0  0  0  0  0  0  0  0  0  0  0  0
   10.0592   -3.6716   19.8930 P   0  0  0  0  0  0  0  0  0  0  0  0
    0.0557  -11.4678   13.9545 C   0  0  0  0  0  0  0  0  0  0  0  0
    6.0702   -7.7376   16.4488 He  0  0  0  0  0  0  0  0  0  0  0  0
    1.8988   -9.4625   15.9974 He  0  0  0  0  0  0  0  0  0  0  0  0
    1.0091   -7.5825   15.6493 He  0  0  0  0  0  0  0  0  0  0  0  0
   10.1813   -5.7395   21.1709 He  0  0  0  0  0  0  0  0  0  0  0  0
    7.3548   -9.1950   16.9245 He  0  0  0  0  0  0  0  0  0  0  0  0
    2.9989   -7.0716   14.6124 He  0  0  0  0  0  0  0  0  0  0  0  0
    8.2777   -7.2181   16.5666 He  0  0  0  0  0  0  0  0  0  0  0  0
    4.4515   -7.7798   16.1974 He  0  0  0  0  0  0  0  0  0  0  0  0
    7.3845   -6.3089   18.0749 He  0  0  0  0  0  0  0  0  0  0  0  0
   10.2629   -4.6507   18.0484 He  0  0  0  0  0  0  0  0  0  0  0  0
    5.6758   -9.0051   20.6378 He  0  0  0  0  0  0  0  0  0  0  0  0
    2.9049   -8.6036   18.3192 He  0  0  0  0  0  0  0  0  0  0  0  0
  1  3  4  0
  1  6  3  0
  1  7  2  0
  1 10  4  0
  1 13  1  0
  1 14  4  0
  1 16  1  0
  1 17  4  0
  1 19  1  0
  1 21  3  0
  2  3  4  0
  2  5  4  0
  2 11  4  0
  2 20  2  0
  3  5  4  0
  3  9  4  0
  3 14  1  0
  3 17  4  0
  3 20  2  0
  3 21  2  0
  4  7  4  0
  4  9  1  0
  4 10  4  0
  4 15  4  0
  4 19  1  0
  4 21  3  0
  5  9  2  0
  5 10  4  0
  5 11  4  0
  5 13  3  0
  5 14  1  0
  5 15  3  0
  5 16  3  0
  5 18  1  0
  5 21  1  0
  6  7  2  0
  6  8  1  0
  6  9  1  0
  6 10  3  0
  6 12  3  0
  6 15  3  0
  6 16  1  0
  6 17  3  0
  6 18  1  0
  6 22  2  0
  7 10  1  0
  7 11  2  0
  7 14  1  0
  7 19  2  0
  7 20  1  0
  8 10  4  0
  8 22  4  0
  9 11  3  0
  9 12  2  0
  9 13  1  0
  9 17  1  0
  9 19  4  0
 10 21  3  0
 11 17  2  0
 11 19  3  0
 12 21  3  0
 13 14  2  0
 13 21  1  0
 14 19  3  0
 14 20  4  0
 15 17  2  0
 15 21  2  0
 18 20  2  0
 18 21  2  0
 18 22  3  0
 19 21  1  0
 20 21  3  0
M  END
$$$$

 Created by Python create_sdf_string function

 34 23  0  0  0  0  0  0  0  0999 V2000
    5.6419   -6.8372   15.2780 C   0  0  0  0  0  0  0  0  0  0  0  0
   10.0722   -6.3512   19.6124 C   0  0  0  0  0  0  0  0  0  0  0  0
   11.0950   -3.1639   17.4233 C   0  0  0  0  0  0  0  0  0  0  0  0
    6.3715   -7.6178   16.7657 C   0  0  0  0  0  0  0  0  0  0  0  0
    1.3773   -9.3715   16.1215 N   0  0  0  0  0  0  0  0  0  0  0  0
    2.0955   -8.2917   15.6849 C   0  0  0  0  0  0  0  0  0  0  0  0
    0.4693  -10.1531   15.3678 C   0  0  0  0  0  0  0  0  0  0  0  0
   10.4079   -5.4795   20.5204 C   0  0  0  0  0  0  0  0  0  0  0  0
    9.1478   -8.2489   17.4693 C   0  0  0  0  0  0  0  0  0  0  0  0
    9.8842   -4.3930   16.6055 C   0  0  0  0  0  0  0  0  0  0  0  0
   -0.5783  -10.9409   15.8738 C   0  0  0  0  0  0  0  0  0  0  0  0
    7.2307   -8.5180   16.9225 C   0  0  0  0  0  0  0  0  0  0  0  0
   -0.7903  -11.9819   13.8045 C   0  0  0  0  0  0  0  0  0  0  0  0
    3.1583   -7.3346   15.1929 C   0  0  0  0  0  0  0  0  0  0  0  0
    3.3421   -7.6666   15.5662 C   0  0  0  0  0  0  0  0  0  0  0  0
    7.9817   -7.1641   16.5059 C   0  0  0  0  0  0  0  0  0  0  0  0
   -1.2133  -11.8289   15.0167 C   0  0  0  0  0  0  0  0  0  0  0  0
    4.3187   -7.8224   16.3291 C   0  0  0  0  0  0  0  0  0  0  0  0
   10.4842   -3.9911   15.8974 C   0  0  0  0  0  0  0  0  0  0  0  0
    5.1724   -8.0862   18.1161 O   0  0  0  0  0  0  0  0  0  0  0  0
    7.1976   -6.9587   17.6820 C   0  0  0  0  0  0  0  0  0  0  0  0
    7.9129   -8.5616   17.0872 C   0  0  0  0  0  0  0  0  0  0  0  0
   10.6416   -3.6281   20.4766 N   0  0  0  0  0  0  0  0  0  0  0  0
    0.7474  -10.1390   14.0533 C   0  0  0  0  0  0  0  0  0  0  0  0
    8.8841   -8.0687   15.7900 C   0  0  0  0  0  0  0  0  0  0  0  0
   10.3248   -4.3749   18.2705 C   0  0  0  0  0  0  0  0  0  0  0  0
    3.4837   -8.6509   17.1009 C   0  0  0  0  0  0  0  0  0  0  0  0
   10.1954   -4.5697   18.1040 C   0  0  0  0  0  0  0  0  0  0  0  0
    6.1021   -8.4205   18.9914 O   0  0  0  0  0  0  0  0  0  0  0  0
    9.4806   -5.5640   18.2924 C   0  0  0  0  0  0  0  0  0  0  0  0
   11.3209   -3.1660   16.3007 C   0  0  0  0  0  0  0  0  0  0  0  0
   10.5205   -4.1707   20.2863 C   0  0  0  0  0  0  0  0  0  0  0  0
    3.0786   -9.1006   17.2197 C   0  0  0  0  0  0  0  0  0  0  0  0
    0.1425  -11.1656   13.3719 C   0  0  0  0  0  0  0  0  0  0  0  0
  2  8  4  0
  2 30  4  0
  3 26  4  0
  3 31  4  0
  5  6  4  0
  5  7  1  0
  6 14  4  0
  7 11  4  0
  7 24  4  0
  8 32  4  0
 10 19  4  0
 11 17  4  0
 12 22  1  0
 13 17  4  0
 13 34  4  0
 14 15  4  0
 15 18  4  0
 19 31  4  0
 23 32  4  0
 24 34  4  0
 26 28  4  0
 27 33  4  0
 28 30  4  0
M  END
$$$$

 Created by Python create_sdf_string function

 34 40  0  0  0  0  0  0  0  0999 V2000
    4.6103   -8.0099   13.6259 C   0  0  0  0  0  0  0  0  0  0  0  0
    9.8480   -6.3196   19.9172 C   0  0  0  0  0  0  0  0  0  0  0  0
    1.5405   -9.8429   16.4679 N   0  0  0  0  0  0  0  0  0  0  0  0
    0.6633  -10.3704   14.9163 C   0  0  0  0  0  0  0  0  0  0  0  0
   10.1186   -5.2754   20.1760 C   0  0  0  0  0  0  0  0  0  0  0  0
   10.9390   -3.9346   14.9739 N   0  0  0  0  0  0  0  0  0  0  0  0
   -0.4040  -11.1240   15.3969 C   0  0  0  0  0  0  0  0  0  0  0  0
   -0.9346  -11.9289   13.8661 C   0  0  0  0  0  0  0  0  0  0  0  0
   -0.9694  -12.4502   15.1140 C   0  0  0  0  0  0  0  0  0  0  0  0
    5.1546   -7.6692   16.3693 Se  0  0  0  0  0  0  0  0  0  0  0  0
    5.3302   -8.1446   17.8022 O   0  0  0  0  0  0  0  0  0  0  0  0
    8.5520   -7.1144   16.6564 P   0  0  0  0  0  0  0  0  0  0  0  0
    7.8273   -8.6268   16.8686 C   0  0  0  0  0  0  0  0  0  0  0  0
    0.7983   -9.7744   14.2628 C   0  0  0  0  0  0  0  0  0  0  0  0
    8.3532   -8.4703   15.8535 C   0  0  0  0  0  0  0  0  0  0  0  0
    3.4054   -9.0300   16.4907 C   0  0  0  0  0  0  0  0  0  0  0  0
    9.8515   -4.9301   18.0831 O   0  0  0  0  0  0  0  0  0  0  0  0
    6.9638   -6.9463   19.3607 C   0  0  0  0  0  0  0  0  0  0  0  0
   -0.0158  -11.3304   13.8411 C   0  0  0  0  0  0  0  0  0  0  0  0
   10.9894   -4.1139   17.6975 He  0  0  0  0  0  0  0  0  0  0  0  0
    5.5544   -8.4349   16.4169 He  0  0  0  0  0  0  0  0  0  0  0  0
    2.1314   -7.7802   16.7888 He  0  0  0  0  0  0  0  0  0  0  0  0
    8.9275   -8.9163   15.8777 He  0  0  0  0  0  0  0  0  0  0  0  0
    7.0977   -8.5790   16.3600 He  0  0  0  0  0  0  0  0  0  0  0  0
    3.5708   -7.5159   16.5621 He  0  0  0  0  0  0  0  0  0  0  0  0
    2.4749   -7.3534   15.2879 He  0  0  0  0  0  0  0  0  0  0  0  0
    8.3414   -7.5827   15.1009 He  0  0  0  0  0  0  0  0  0  0  0  0
   10.2505   -4.2604   15.8926 He  0  0  0  0  0  0  0  0  0  0  0  0
   10.7340   -3.7154   20.6887 He  0  0  0  0  0  0  0  0  0  0  0  0
   10.4841   -4.1370   17.9061 He  0  0  0  0  0  0  0  0  0  0  0  0
    6.2510  -10.1216   18.8007 He  0  0  0  0  0  0  0  0  0  0  0  0
   11.6656   -3.1507   16.6979 He  0  0  0  0  0  0  0  0  0  0  0  0
   10.0496   -5.3095   20.8076 He  0  0  0  0  0  0  0  0  0  0  0  0
    2.9071   -9.3513   17.1344 He  0  0  0  0  0  0  0  0  0  0  0  0
  1  4  4  0
  1  6  3  0
  1  9  3  0
  1 12  4  0
  1 13  2  0
  1 18  3  0
  2  5  3  0
  2  7  2  0
  3  4  1  0
  4  7  4  0
  4 11  3  0
  4 14  4  0
  4 17  3  0
  5 15  3  0
  6  7  3  0
  6  9  1  0
  6 10  2  0
  6 17  2  0
  6 19  1  0
  7  9  4  0
  7 10  1  0
  7 12  3  0
  7 13  1  0
  8 10  2  0
  8 12  4  0
  8 17  2  0
  9 10  2  0
  9 16  2  0
  9 18  3  0
 10 14  3  0
 10 16  1  0
 11 12  2  0
 11 18  1  0
 12 13  2  0
 12 14  1  0
 12 15  3  0
 13 18  4  0
 14 16  4  0
 14 19  4  0
 16 18  1  0
M  END
$$$$

 Created by Python create_sdf_string function

 34 22  0  0  0  0  0  0  0  0999 V2000
    4.1845   -7.5029   14.6807 C   0  0  0  0  0  0  0  0  0  0  0  0
    9.8497   -6.1947   19.5788 C   0  0  0  0  0  0  0  0  0  0  0  0
   10.6899   -3.9680   18.3387 C   0  0  0  0  0  0  0  0  0  0  0  0
    5.8401   -8.3612   16.5810 C   0  0  0  0  0  0  0  0  0  0  0  0
    1.2777   -9.6979   16.4205 N   0  0  0  0  0  0  0  0  0  0  0  0
    2.2370   -8.1992   16.0249 C   0  0  0  0  0  0  0  0  0  0  0  0
    0.4829  -10.3999   15.4716 C   0  0  0  0  0  0  0  0  0  0  0  0
   10.4217   -5.0213   20.3528 C   0  0  0  0  0  0  0  0  0  0  0  0
    8.2241   -8.2583   16.0305 C   0  0  0  0  0  0  0  0  0  0  0  0
   10.6988   -3.8967   15.8453 C   0  0  0  0  0  0  0  0  0  0  0  0
   -0.3103  -11.3953   15.8950 C   0  0  0  0  0  0  0  0  0  0  0  0
    6.9009   -8.4251   16.3827 C   0  0  0  0  0  0  0  0  0  0  0  0
   -0.9137  -11.9930   13.7555 C   0  0  0  0  0  0  0  0  0  0  0  0
    3.7913   -8.0140   16.3711 C   0  0  0  0  0  0  0  0  0  0  0  0
    2.6974   -7.6240   15.2813 C   0  0  0  0  0  0  0  0  0  0  0  0
    8.3464   -7.4316   15.4483 C   0  0  0  0  0  0  0  0  0  0  0  0
   -1.0387  -12.1851   15.0610 C   0  0  0  0  0  0  0  0  0  0  0  0
    5.0391   -8.0815   16.3441 C   0  0  0  0  0  0  0  0  0  0  0  0
   10.1853   -4.2941   15.9392 C   0  0  0  0  0  0  0  0  0  0  0  0
    5.4794   -7.9976   18.5360 O   0  0  0  0  0  0  0  0  0  0  0  0
    8.8384   -6.4607   17.3349 C   0  0  0  0  0  0  0  0  0  0  0  0
    7.9634   -8.3133   17.3041 C   0  0  0  0  0  0  0  0  0  0  0  0
   10.7880   -3.8300   20.4549 N   0  0  0  0  0  0  0  0  0  0  0  0
    0.5172  -10.1630   14.0664 C   0  0  0  0  0  0  0  0  0  0  0  0
    8.2523   -8.2618   15.5385 C   0  0  0  0  0  0  0  0  0  0  0  0
   10.5569   -4.1633   18.0943 C   0  0  0  0  0  0  0  0  0  0  0  0
    3.3764   -8.9668   16.7369 C   0  0  0  0  0  0  0  0  0  0  0  0
    9.9860   -4.9766   17.8299 C   0  0  0  0  0  0  0  0  0  0  0  0
    6.1781   -8.9957   18.2035 C   0  0  0  0  0  0  0  0  0  0  0  0
    7.5336   -7.0095   17.8986 C   0  0  0  0  0  0  0  0  0  0  0  0
   11.1869   -3.4231   16.4220 C   0  0  0  0  0  0  0  0  0  0  0  0
   10.3039   -5.2695   20.1926 C   0  0  0  0  0  0  0  0  0  0  0  0
    2.4916   -9.4226   17.1423 C   0  0  0  0  0  0  0  0  0  0  0  0
   -0.1809  -11.0247   13.2765 C   0  0  0  0  0  0  0  0  0  0  0  0
  1 15  4  0
  2  8  4  0
  2 32  4  0
  3 26  4  0
  4 18  1  0
  5  7  1  0
  5 33  4  0
  6 15  4  0
  7 11  4  0
  7 24  4  0
  8 23  4  0
  8 32  4  0
 10 19  4  0
 10 31  4  0
 11 17  4  0
 13 17  4  0
 13 34  4  0
 16 25  4  0
 19 31  4  0
 24 34  4  0
 26 28  4  0
 27 33  4  0
M  END
$$$$

 Created by Python create_sdf_string function

 34 61  0  0  0  0  0  0  0  0999 V2000
    3.7543   -7.2563   15.6302 N   0  0  0  0  0  0  0  0  0  0  0  0
   10.3660   -6.2929   19.9883 C   0  0  0  0  0  0  0  0  0  0  0  0
   10.1155   -4.0100   18.3253 O   0  0  0  0  0  0  0  0  0  0  0  0
    0.2968  -10.3748   15.5008 N   0  0  0  0  0  0  0  0  0  0  0  0
   10.4872   -4.8609   20.5136 C   0  0  0  0  0  0  0  0  0  0  0  0
    3.2897   -7.7974   14.8812 C   0  0  0  0  0  0  0  0  0  0  0  0
   -1.3712  -12.4942   14.6202 C   0  0  0  0  0  0  0  0  0  0  0  0
    3.5445   -6.5646   15.6753 N   0  0  0  0  0  0  0  0  0  0  0  0
   10.2541   -4.1957   15.9936 C   0  0  0  0  0  0  0  0  0  0  0  0
    5.4664   -8.3899   18.3013 O   0  0  0  0  0  0  0  0  0  0  0  0
    7.9248   -8.6608   17.7898 C   0  0  0  0  0  0  0  0  0  0  0  0
   11.0628   -3.6288   20.2215 N   0  0  0  0  0  0  0  0  0  0  0  0
    0.9589  -10.1966   13.4326 C   0  0  0  0  0  0  0  0  0  0  0  0
    8.1485   -8.0304   15.3692 C   0  0  0  0  0  0  0  0  0  0  0  0
   10.1505   -4.3342   18.4960 S   0  0  0  0  0  0  0  0  0  0  0  0
    3.3104   -9.2705   16.2403 C   0  0  0  0  0  0  0  0  0  0  0  0
    9.6516   -5.0856   17.9797 C   0  0  0  0  0  0  0  0  0  0  0  0
    4.9184   -7.3304   17.6011 C   0  0  0  0  0  0  0  0  0  0  0  0
    8.0234   -6.6871   17.0561 S   0  0  0  0  0  0  0  0  0  0  0  0
   10.7315   -3.4287   16.0470 C   0  0  0  0  0  0  0  0  0  0  0  0
    9.8047   -4.8881   18.8270 N   0  0  0  0  0  0  0  0  0  0  0  0
    2.0015  -11.0777   17.7639 S   0  0  0  0  0  0  0  0  0  0  0  0
    5.3827   -9.0243   16.0913 He  0  0  0  0  0  0  0  0  0  0  0  0
    0.9929   -9.6645   16.6856 He  0  0  0  0  0  0  0  0  0  0  0  0
    1.5059   -7.1323   17.6963 He  0  0  0  0  0  0  0  0  0  0  0  0
    9.7811   -9.0835   15.1329 He  0  0  0  0  0  0  0  0  0  0  0  0
   11.7479   -3.2552   15.9303 He  0  0  0  0  0  0  0  0  0  0  0  0
   -0.6132  -11.4042   15.5838 He  0  0  0  0  0  0  0  0  0  0  0  0
    8.9779   -8.3803   15.6526 He  0  0  0  0  0  0  0  0  0  0  0  0
   -1.6066  -11.4848   13.6895 He  0  0  0  0  0  0  0  0  0  0  0  0
    2.0108   -5.7284   17.0996 He  0  0  0  0  0  0  0  0  0  0  0  0
    9.1049   -6.1816   15.9571 He  0  0  0  0  0  0  0  0  0  0  0  0
    8.6099   -6.2421   17.5615 He  0  0  0  0  0  0  0  0  0  0  0  0
   -0.0383  -11.1501   13.5780 He  0  0  0  0  0  0  0  0  0  0  0  0
  1  2  1  0
  1  6  1  0
  1  7  1  0
  1  8  4  0
  1 10  4  0
  1 11  1  0
  1 22  1  0
  2  5  4  0
  2  8  1  0
  2 14  4  0
  2 16  2  0
  2 18  1  0
  2 19  4  0
  3  5  3  0
  3  6  1  0
  3  9  4  0
  3 10  2  0
  3 11  2  0
  3 15  1  0
  4  6  1  0
  4 12  2  0
  4 13  4  0
  4 15  1  0
  4 22  1  0
  5  8  4  0
  5 12  4  0
  5 19  4  0
  5 21  4  0
  6  7  3  0
  6 14  4  0
  6 15  2  0
  7  8  2  0
  7 11  2  0
  7 19  3  0
  8 10  4  0
  8 16  1  0
  8 17  2  0
  8 18  1  0
  8 19  1  0
  8 20  1  0
  9 12  2  0
  9 21  2  0
 10 15  4  0
 10 17  2  0
 10 19  4  0
 11 13  2  0
 11 18  3  0
 11 19  1  0
 11 21  4  0
 11 22  2  0
 12 14  3  0
 12 15  4  0
 12 19  3  0
 12 21  4  0
 15 19  3  0
 16 18  1  0
 16 19  1  0
 16 22  3  0
 17 18  3  0
 17 22  3  0
 18 20  1  0
M  END
$$$$

 Created by Python create_sdf_string function

 34 28  0  0  0  0  0  0  0  0999 V2000
    3.6140   -7.6971   16.0250 C   0  0  0  0  0  0  0  0  0  0  0  0
   10.0445   -5.7502   19.9176 C   0  0  0  0  0  0  0  0  0  0  0  0
   10.6674   -3.7897   17.8019 C   0  0  0  0  0  0  0  0  0  0  0  0
    5.9715   -8.4016   16.4521 C   0  0  0  0  0  0  0  0  0  0  0  0
    1.0037   -9.7918   16.4892 C   0  0  0  0  0  0  0  0  0  0  0  0
    1.6141   -7.6925   16.4734 C   0  0  0  0  0  0  0  0  0  0  0  0
    0.4002  -10.4049   15.4292 N   0  0  0  0  0  0  0  0  0  0  0  0
   10.6832   -4.7612   20.7440 C   0  0  0  0  0  0  0  0  0  0  0  0
    8.5378   -8.3351   15.2474 C   0  0  0  0  0  0  0  0  0  0  0  0
   11.3002   -3.0893   16.8518 C   0  0  0  0  0  0  0  0  0  0  0  0
   -0.5496  -11.3805   15.7084 C   0  0  0  0  0  0  0  0  0  0  0  0
    7.9650   -8.1187   15.7166 C   0  0  0  0  0  0  0  0  0  0  0  0
   -1.1477  -11.8121   13.7172 C   0  0  0  0  0  0  0  0  0  0  0  0
    2.1610   -6.8648   16.3711 C   0  0  0  0  0  0  0  0  0  0  0  0
    2.9594   -8.1152   15.6091 C   0  0  0  0  0  0  0  0  0  0  0  0
    8.5580   -6.2520   16.4600 C   0  0  0  0  0  0  0  0  0  0  0  0
   -1.3703  -12.1869   14.6912 C   0  0  0  0  0  0  0  0  0  0  0  0
    3.6308   -7.3948   16.0433 C   0  0  0  0  0  0  0  0  0  0  0  0
   10.0275   -4.2433   15.9400 C   0  0  0  0  0  0  0  0  0  0  0  0
    5.4093   -8.2681   18.5217 O   0  0  0  0  0  0  0  0  0  0  0  0
    8.3713   -6.5326   17.3781 C   0  0  0  0  0  0  0  0  0  0  0  0
    7.6904   -8.3533   17.6353 C   0  0  0  0  0  0  0  0  0  0  0  0
   10.9490   -3.7293   19.9793 N   0  0  0  0  0  0  0  0  0  0  0  0
    0.6110  -10.2418   14.0122 C   0  0  0  0  0  0  0  0  0  0  0  0
    8.0231   -8.2115   15.3811 C   0  0  0  0  0  0  0  0  0  0  0  0
   10.6123   -3.9979   18.5882 C   0  0  0  0  0  0  0  0  0  0  0  0
    3.1829   -9.2079   16.3447 C   0  0  0  0  0  0  0  0  0  0  0  0
    9.8703   -5.0301   18.1514 C   0  0  0  0  0  0  0  0  0  0  0  0
    5.1582   -7.9899   17.0595 C   0  0  0  0  0  0  0  0  0  0  0  0
    7.6213   -7.1802   17.3578 C   0  0  0  0  0  0  0  0  0  0  0  0
   11.0307   -3.5286   15.9411 C   0  0  0  0  0  0  0  0  0  0  0  0
    9.8280   -5.4704   18.8504 C   0  0  0  0  0  0  0  0  0  0  0  0
    1.2042  -10.1490   17.4537 O   0  0  0  0  0  0  0  0  0  0  0  0
   -0.1670  -10.9260   13.2489 C   0  0  0  0  0  0  0  0  0  0  0  0
  1 18  4  0
  2  8  4  0
  2 32  4  0
  3 10  4  0
  3 26  4  0
  4 29  1  0
  5  6  1  0
  5  7  1  0
  5 33  2  0
  6 14  4  0
  7 11  4  0
  7 24  4  0
  8 23  4  0
  9 25  1  0
 10 31  4  0
 11 17  4  0
 12 25  1  0
 13 17  4  0
 13 34  4  0
 16 21  1  0
 19 31  4  0
 20 29  2  0
 21 30  1  0
 22 30  1  0
 23 26  4  0
 24 34  4  0
 26 28  4  0
 28 32  4  0
M  END
$$$$

 Created by Python create_sdf_string function

 34 71  0  0  0  0  0  0  0  0999 V2000
    3.8130   -7.0104   15.5512 C   0  0  0  0  0  0  0  0  0  0  0  0
   10.1482   -5.4887   19.7000 C   0  0  0  0  0  0  0  0  0  0  0  0
    0.6448  -10.2558   17.2359 C   0  0  0  0  0  0  0  0  0  0  0  0
    2.6072   -7.8516   16.7697 Cl  0  0  0  0  0  0  0  0  0  0  0  0
   10.5222   -4.7751   20.8418 C   0  0  0  0  0  0  0  0  0  0  0  0
   10.9217   -1.6930   16.7675 C   0  0  0  0  0  0  0  0  0  0  0  0
   -0.8387  -11.6276   15.6964 C   0  0  0  0  0  0  0  0  0  0  0  0
   -0.9197  -11.3481   13.3735 C   0  0  0  0  0  0  0  0  0  0  0  0
    2.9625   -8.0335   17.9847 C   0  0  0  0  0  0  0  0  0  0  0  0
   -1.6395  -11.6784   14.5248 C   0  0  0  0  0  0  0  0  0  0  0  0
    2.6609   -6.5415   17.6030 Se  0  0  0  0  0  0  0  0  0  0  0  0
   10.5839   -4.4198   15.8050 C   0  0  0  0  0  0  0  0  0  0  0  0
    5.8895   -7.8208   18.7477 O   0  0  0  0  0  0  0  0  0  0  0  0
    8.2193   -5.3102   17.5990 B   0  0  0  0  0  0  0  0  0  0  0  0
    7.8855   -7.7600   17.8425 C   0  0  0  0  0  0  0  0  0  0  0  0
   10.9462   -3.4760   19.6686 N   0  0  0  0  0  0  0  0  0  0  0  0
    1.0058  -10.3687   13.7050 C   0  0  0  0  0  0  0  0  0  0  0  0
    8.5773   -7.8036   14.7642 Br  0  0  0  0  0  0  0  0  0  0  0  0
   10.3346   -4.2820   18.9201 O   0  0  0  0  0  0  0  0  0  0  0  0
    9.3268   -5.0285   18.5459 O   0  0  0  0  0  0  0  0  0  0  0  0
    9.7133   -7.8414   17.8135 C   0  0  0  0  0  0  0  0  0  0  0  0
   -0.5454  -10.7193   13.0047 C   0  0  0  0  0  0  0  0  0  0  0  0
   10.5754   -3.2536   17.0699 He  0  0  0  0  0  0  0  0  0  0  0  0
    6.3727   -8.8375   16.5066 He  0  0  0  0  0  0  0  0  0  0  0  0
    0.4078  -11.1323   16.1987 He  0  0  0  0  0  0  0  0  0  0  0  0
    9.2677   -9.6572   14.6396 He  0  0  0  0  0  0  0  0  0  0  0  0
    8.7757   -6.1391   16.6884 He  0  0  0  0  0  0  0  0  0  0  0  0
    2.6740   -9.9058   14.1942 He  0  0  0  0  0  0  0  0  0  0  0  0
    9.3237   -5.7996   16.7567 He  0  0  0  0  0  0  0  0  0  0  0  0
    3.5675   -9.3481   16.0707 He  0  0  0  0  0  0  0  0  0  0  0  0
    3.9463   -8.6719   16.5886 He  0  0  0  0  0  0  0  0  0  0  0  0
   11.4895   -3.6220   15.7729 He  0  0  0  0  0  0  0  0  0  0  0  0
    8.6115   -5.6921   19.5411 He  0  0  0  0  0  0  0  0  0  0  0  0
    0.6271  -10.5503   17.6714 He  0  0  0  0  0  0  0  0  0  0  0  0
  1  2  3  0
  1  6  3  0
  1  7  1  0
  1  8  2  0
  1  9  3  0
  1 12  2  0
  1 15  4  0
  1 16  2  0
  2  3  4  0
  2  4  3  0
  2  5  4  0
  2  6  2  0
  2  9  2  0
  2 14  4  0
  2 22  2  0
  3  8  1  0
  3 11  1  0
  3 21  4  0
  4 10  3  0
  4 11  4  0
  4 13  3  0
  4 14  4  0
  4 22  4  0
  5  6  4  0
  5 11  4  0
  5 14  2  0
  5 16  2  0
  5 17  4  0
  6  7  2  0
  6 11  3  0
  6 12  4  0
  6 14  1  0
  7  9  4  0
  7 10  4  0
  7 17  1  0
  8  9  1  0
  8 10  4  0
  8 12  1  0
  8 14  1  0
  8 21  2  0
  8 22  4  0
  9 11  3  0
  9 14  3  0
  9 16  4  0
  9 19  1  0
  9 21  1  0
  9 22  4  0
 10 21  1  0
 11 12  3  0
 11 13  3  0
 11 15  4  0
 11 16  4  0
 11 17  3  0
 11 18  4  0
 13 14  1  0
 13 17  1  0
 13 20  4  0
 13 21  2  0
 14 16  1  0
 14 18  1  0
 15 18  4  0
 15 19  2  0
 15 21  4  0
 15 22  4  0
 16 19  4  0
 16 21  3  0
 17 19  1  0
 17 22  4  0
 19 20  4  0
 20 21  3  0
 20 22  3  0
M  END
$$$$

 Created by Python create_sdf_string function

 34 25  0  0  0  0  0  0  0  0999 V2000
    4.3660   -7.8239   16.2988 C   0  0  0  0  0  0  0  0  0  0  0  0
   10.0659   -5.5054   20.5499 C   0  0  0  0  0  0  0  0  0  0  0  0
   10.8823   -3.3498   17.3293 C   0  0  0  0  0  0  0  0  0  0  0  0
    6.6610   -8.3696   16.4678 C   0  0  0  0  0  0  0  0  0  0  0  0
    0.7806  -10.3726   17.0851 C   0  0  0  0  0  0  0  0  0  0  0  0
    2.5309   -8.3588   16.7081 C   0  0  0  0  0  0  0  0  0  0  0  0
    0.1960  -10.7515   15.7171 C   0  0  0  0  0  0  0  0  0  0  0  0
   10.6703   -4.5489   20.8667 C   0  0  0  0  0  0  0  0  0  0  0  0
    7.9313   -8.4915   15.2871 C   0  0  0  0  0  0  0  0  0  0  0  0
   11.2048   -3.1161   16.7824 C   0  0  0  0  0  0  0  0  0  0  0  0
   -0.8196  -11.5771   15.7086 C   0  0  0  0  0  0  0  0  0  0  0  0
    8.7859   -6.2747   16.4224 C   0  0  0  0  0  0  0  0  0  0  0  0
   -1.1250  -11.4538   13.4318 C   0  0  0  0  0  0  0  0  0  0  0  0
    3.3410   -8.7428   17.1491 C   0  0  0  0  0  0  0  0  0  0  0  0
    2.2037   -9.3055   15.3319 C   0  0  0  0  0  0  0  0  0  0  0  0
    9.2543   -5.4899   16.7608 C   0  0  0  0  0  0  0  0  0  0  0  0
   -1.4354  -11.8606   14.6243 C   0  0  0  0  0  0  0  0  0  0  0  0
    3.0801   -7.5458   16.7655 C   0  0  0  0  0  0  0  0  0  0  0  0
   10.2334   -4.3798   15.9128 C   0  0  0  0  0  0  0  0  0  0  0  0
    5.7717   -7.8011   18.6131 O   0  0  0  0  0  0  0  0  0  0  0  0
    8.4102   -6.0409   17.0393 C   0  0  0  0  0  0  0  0  0  0  0  0
    7.7738   -7.8329   17.7091 C   0  0  0  0  0  0  0  0  0  0  0  0
   10.9098   -3.5739   19.8801 N   0  0  0  0  0  0  0  0  0  0  0  0
    0.7078  -10.2737   14.0383 C   0  0  0  0  0  0  0  0  0  0  0  0
    8.4530   -7.9649   15.1730 C   0  0  0  0  0  0  0  0  0  0  0  0
   10.4935   -3.9756   18.5872 C   0  0  0  0  0  0  0  0  0  0  0  0
    3.3321   -9.2495   16.1651 C   0  0  0  0  0  0  0  0  0  0  0  0
    9.7065   -5.0222   18.4161 C   0  0  0  0  0  0  0  0  0  0  0  0
    4.4840   -8.5096   16.7906 C   0  0  0  0  0  0  0  0  0  0  0  0
    8.7150   -7.7932   17.4650 C   0  0  0  0  0  0  0  0  0  0  0  0
   11.5104   -3.3055   15.8980 C   0  0  0  0  0  0  0  0  0  0  0  0
    9.1660   -5.8821   18.9858 C   0  0  0  0  0  0  0  0  0  0  0  0
    1.1862  -10.0630   17.2044 N   0  0  0  0  0  0  0  0  0  0  0  0
   -0.1108  -10.7593   13.1305 C   0  0  0  0  0  0  0  0  0  0  0  0
  2  8  4  0
  2 32  4  0
  3 10  4  0
  3 26  4  0
  4  9  4  0
  5  7  1  0
  5 33  4  0
  6 18  4  0
  7 11  4  0
  7 24  4  0
  8 23  4  0
  9 25  4  0
 10 31  4  0
 11 17  4  0
 12 16  4  0
 13 17  4  0
 13 34  4  0
 15 27  4  0
 16 19  4  0
 16 28  4  0
 22 30  4  0
 23 26  4  0
 24 34  4  0
 26 28  4  0
 28 32  4  0
M  END
$$$$

 Created by Python create_sdf_string function

 34 82  0  0  0  0  0  0  0  0999 V2000
   10.3790   -5.5129   21.2427 C   0  0  0  0  0  0  0  0  0  0  0  0
    6.3341   -8.3247   16.0182 C   0  0  0  0  0  0  0  0  0  0  0  0
    0.8088  -10.3999   17.0939 C   0  0  0  0  0  0  0  0  0  0  0  0
    3.1541   -7.6925   17.8987 C   0  0  0  0  0  0  0  0  0  0  0  0
   -0.0011  -11.6093   15.5275 C   0  0  0  0  0  0  0  0  0  0  0  0
   10.7994   -4.5534   20.4869 C   0  0  0  0  0  0  0  0  0  0  0  0
   -0.9769  -12.5512   15.7077 O   0  0  0  0  0  0  0  0  0  0  0  0
    8.5329   -7.1181   15.3013 C   0  0  0  0  0  0  0  0  0  0  0  0
   -0.4835  -11.5312   13.4706 C   0  0  0  0  0  0  0  0  0  0  0  0
    1.8899   -7.4651   17.4706 C   0  0  0  0  0  0  0  0  0  0  0  0
   10.4455   -7.7417   16.2704 F   0  0  0  0  0  0  0  0  0  0  0  0
   -1.5149  -11.6623   14.7106 C   0  0  0  0  0  0  0  0  0  0  0  0
    0.8104   -6.6638   15.9768 P   0  0  0  0  0  0  0  0  0  0  0  0
   10.1438   -4.1549   15.6945 F   0  0  0  0  0  0  0  0  0  0  0  0
    5.9576   -7.6014   18.3842 O   0  0  0  0  0  0  0  0  0  0  0  0
    8.4618   -6.1522   15.4415 F   0  0  0  0  0  0  0  0  0  0  0  0
   11.4221   -3.0095   20.1556 N   0  0  0  0  0  0  0  0  0  0  0  0
    0.6125  -10.1559   14.3150 C   0  0  0  0  0  0  0  0  0  0  0  0
    8.8462   -8.1235   15.2473 F   0  0  0  0  0  0  0  0  0  0  0  0
   11.3393   -4.1983   19.3419 C   0  0  0  0  0  0  0  0  0  0  0  0
    2.9064   -9.7181   16.1556 C   0  0  0  0  0  0  0  0  0  0  0  0
   10.0097   -5.0169   17.9144 C   0  0  0  0  0  0  0  0  0  0  0  0
    5.4481   -7.3949   16.4995 N   0  0  0  0  0  0  0  0  0  0  0  0
   11.1597   -3.0958   15.6978 C   0  0  0  0  0  0  0  0  0  0  0  0
    0.7752  -11.1494   12.4459 C   0  0  0  0  0  0  0  0  0  0  0  0
    4.0034   -7.0889   15.2717 He  0  0  0  0  0  0  0  0  0  0  0  0
   11.0421   -3.5784   17.6157 He  0  0  0  0  0  0  0  0  0  0  0  0
    9.0237  -10.7958   16.2615 He  0  0  0  0  0  0  0  0  0  0  0  0
    9.6534   -4.6366   16.4222 He  0  0  0  0  0  0  0  0  0  0  0  0
    3.2406   -7.8765   16.2092 He  0  0  0  0  0  0  0  0  0  0  0  0
    7.6536   -7.7969   18.3004 He  0  0  0  0  0  0  0  0  0  0  0  0
    9.2289   -6.4861   17.8970 He  0  0  0  0  0  0  0  0  0  0  0  0
    8.2115   -7.4374   18.8178 He  0  0  0  0  0  0  0  0  0  0  0  0
   -1.0794   -8.4646   17.6716 He  0  0  0  0  0  0  0  0  0  0  0  0
  1  3  3  0
  1  5  3  0
  1  6  2  0
  1  7  3  0
  1 10  3  0
  1 16  1  0
  1 19  2  0
  2 13  4  0
  2 17  2  0
  2 18  4  0
  2 19  1  0
  2 22  2  0
  2 25  4  0
  3  4  2  0
  3  5  1  0
  3 13  1  0
  3 17  4  0
  3 23  3  0
  4  9  4  0
  4 13  4  0
  4 15  4  0
  4 16  2  0
  4 18  1  0
  4 23  2  0
  4 24  4  0
  4 25  3  0
  5  7  1  0
  5 11  4  0
  5 14  4  0
  5 18  4  0
  5 23  2  0
  6  8  3  0
  6 12  1  0
  6 17  4  0
  6 20  2  0
  6 23  1  0
  7 11  4  0
  7 12  4  0
  7 13  4  0
  7 14  3  0
  7 22  2  0
  7 23  3  0
  7 25  4  0
  8 10  2  0
  8 14  1  0
  8 16  3  0
  8 17  2  0
  8 21  4  0
  8 22  2  0
  9 11  2  0
  9 13  4  0
  9 21  3  0
  9 22  1  0
 10 11  1  0
 10 16  1  0
 10 24  2  0
 11 13  4  0
 11 14  4  0
 11 15  2  0
 11 17  4  0
 11 19  4  0
 11 25  2  0
 12 14  1  0
 12 16  1  0
 12 23  1  0
 13 16  1  0
 13 18  2  0
 13 21  1  0
 13 23  3  0
 14 16  1  0
 14 25  2  0
 15 16  3  0
 15 22  1  0
 15 24  3  0
 16 17  4  0
 16 23  2  0
 17 19  4  0
 17 22  1  0
 18 25  4  0
 20 22  4  0
 22 23  3  0
 23 24  2  0
M  END
$$$$

 Created by Python create_sdf_string function

 34 23  0  0  0  0  0  0  0  0999 V2000
    3.9332   -7.8810   16.1809 C   0  0  0  0  0  0  0  0  0  0  0  0
   10.3734   -5.4857   20.4616 C   0  0  0  0  0  0  0  0  0  0  0  0
   11.0673   -3.3418   17.4647 C   0  0  0  0  0  0  0  0  0  0  0  0
    6.3800   -8.1813   16.3222 C   0  0  0  0  0  0  0  0  0  0  0  0
    0.4965  -10.1943   16.9246 C   0  0  0  0  0  0  0  0  0  0  0  0
    3.4298   -7.7984   16.7706 C   0  0  0  0  0  0  0  0  0  0  0  0
    0.0725  -10.7336   15.5594 C   0  0  0  0  0  0  0  0  0  0  0  0
   10.8977   -4.4279   20.7507 C   0  0  0  0  0  0  0  0  0  0  0  0
    7.7559   -8.9112   16.3644 C   0  0  0  0  0  0  0  0  0  0  0  0
    9.9072   -4.6003   16.4470 C   0  0  0  0  0  0  0  0  0  0  0  0
   -0.9358  -11.6755   15.5635 C   0  0  0  0  0  0  0  0  0  0  0  0
    8.0932   -7.3435   15.7483 C   0  0  0  0  0  0  0  0  0  0  0  0
   -0.8418  -11.7519   13.3502 C   0  0  0  0  0  0  0  0  0  0  0  0
    1.6957   -7.6548   16.6221 C   0  0  0  0  0  0  0  0  0  0  0  0
    3.0756   -8.3851   16.4714 C   0  0  0  0  0  0  0  0  0  0  0  0
    8.9880   -7.2887   17.0384 C   0  0  0  0  0  0  0  0  0  0  0  0
   -1.2772  -12.0727   14.4749 C   0  0  0  0  0  0  0  0  0  0  0  0
    1.3244   -7.5045   16.4032 C   0  0  0  0  0  0  0  0  0  0  0  0
   10.0173   -4.1880   15.7878 C   0  0  0  0  0  0  0  0  0  0  0  0
    5.7669   -7.5924   18.5015 O   0  0  0  0  0  0  0  0  0  0  0  0
    8.0069   -6.5355   15.7733 F   0  0  0  0  0  0  0  0  0  0  0  0
    7.7385   -7.7344   17.9506 C   0  0  0  0  0  0  0  0  0  0  0  0
   11.2377   -3.4359   19.9718 N   0  0  0  0  0  0  0  0  0  0  0  0
    0.6667  -10.4434   14.3026 C   0  0  0  0  0  0  0  0  0  0  0  0
    8.5395   -8.1701   15.2306 F   0  0  0  0  0  0  0  0  0  0  0  0
   10.8743   -3.8275   18.6410 C   0  0  0  0  0  0  0  0  0  0  0  0
    2.5345   -9.3243   16.2313 C   0  0  0  0  0  0  0  0  0  0  0  0
   10.2266   -4.8892   18.1035 C   0  0  0  0  0  0  0  0  0  0  0  0
    5.7490   -7.8143   16.6690 N   0  0  0  0  0  0  0  0  0  0  0  0
    9.5988   -6.0244   18.3833 C   0  0  0  0  0  0  0  0  0  0  0  0
   10.9635   -3.4976   16.2168 C   0  0  0  0  0  0  0  0  0  0  0  0
    8.5163   -7.3661   18.0409 C   0  0  0  0  0  0  0  0  0  0  0  0
    0.2177   -8.5707   16.9606 C   0  0  0  0  0  0  0  0  0  0  0  0
    0.1747  -10.9890   13.2397 C   0  0  0  0  0  0  0  0  0  0  0  0
  2  8  4  0
  2 30  4  0
  3 26  4  0
  3 31  4  0
  5  7  1  0
  5 33  1  0
  7 11  4  0
  7 24  4  0
  8 23  4  0
 10 19  4  0
 10 28  4  0
 11 17  4  0
 12 21  1  0
 12 25  1  0
 13 17  4  0
 13 34  4  0
 14 18  4  0
 15 27  4  0
 19 31  4  0
 23 26  4  0
 24 34  4  0
 26 28  4  0
 28 30  4  0
M  END
$$$$

 Created by Python create_sdf_string function

 34 48  0  0  0  0  0  0  0  0999 V2000
    4.6477   -7.3160   17.2305 C   0  0  0  0  0  0  0  0  0  0  0  0
    9.9335   -5.3607   21.1141 C   0  0  0  0  0  0  0  0  0  0  0  0
   11.5643   -2.6272   15.5326 C   0  0  0  0  0  0  0  0  0  0  0  0
    6.7878   -6.6781   16.5651 F   0  0  0  0  0  0  0  0  0  0  0  0
    0.8725   -9.5845   17.0554 C   0  0  0  0  0  0  0  0  0  0  0  0
    3.4034   -7.2941   17.8072 F   0  0  0  0  0  0  0  0  0  0  0  0
    0.0257  -10.9999   15.9341 C   0  0  0  0  0  0  0  0  0  0  0  0
   11.2706   -4.1593   20.2169 C   0  0  0  0  0  0  0  0  0  0  0  0
   -1.1080  -11.6276   15.4765 C   0  0  0  0  0  0  0  0  0  0  0  0
    9.0406   -8.1431   17.4122 N   0  0  0  0  0  0  0  0  0  0  0  0
   -0.4040  -11.4792   14.8148 C   0  0  0  0  0  0  0  0  0  0  0  0
   10.2384   -4.4692   15.7337 C   0  0  0  0  0  0  0  0  0  0  0  0
    7.2957   -7.6099   18.2466 C   0  0  0  0  0  0  0  0  0  0  0  0
   11.1137   -3.4609   19.9119 N   0  0  0  0  0  0  0  0  0  0  0  0
    0.8342  -10.4154   13.8619 C   0  0  0  0  0  0  0  0  0  0  0  0
    2.9487   -9.1839   15.7229 C   0  0  0  0  0  0  0  0  0  0  0  0
   10.6993   -6.0627   20.1423 C   0  0  0  0  0  0  0  0  0  0  0  0
   11.4912   -3.4648   16.6749 C   0  0  0  0  0  0  0  0  0  0  0  0
    0.2015  -10.8390   13.1078 C   0  0  0  0  0  0  0  0  0  0  0  0
    7.1346   -9.7212   16.7937 He  0  0  0  0  0  0  0  0  0  0  0  0
    9.2324   -2.0399   16.4347 He  0  0  0  0  0  0  0  0  0  0  0  0
    7.0230   -8.1339   16.3270 He  0  0  0  0  0  0  0  0  0  0  0  0
   -1.3957  -11.4675   13.4264 He  0  0  0  0  0  0  0  0  0  0  0  0
    1.4884   -6.4535   17.7226 He  0  0  0  0  0  0  0  0  0  0  0  0
    3.3478   -8.5745   17.1425 He  0  0  0  0  0  0  0  0  0  0  0  0
    0.2475   -7.8379   15.7929 He  0  0  0  0  0  0  0  0  0  0  0  0
    5.5626   -7.5957   17.8313 He  0  0  0  0  0  0  0  0  0  0  0  0
    8.1022   -6.9666   15.1237 He  0  0  0  0  0  0  0  0  0  0  0  0
    8.1318   -7.8464   15.3083 He  0  0  0  0  0  0  0  0  0  0  0  0
   10.4446   -4.0244   18.0512 He  0  0  0  0  0  0  0  0  0  0  0  0
   10.2177   -5.0114   17.7824 He  0  0  0  0  0  0  0  0  0  0  0  0
    6.0311   -7.3330   16.8850 He  0  0  0  0  0  0  0  0  0  0  0  0
    8.4286   -6.7443   18.0496 He  0  0  0  0  0  0  0  0  0  0  0  0
   -0.5910   -8.8851   16.2736 He  0  0  0  0  0  0  0  0  0  0  0  0
  1  5  1  0
  1  8  1  0
  1 10  4  0
  1 12  4  0
  1 18  3  0
  1 19  4  0
  2  5  2  0
  2  7  1  0
  2  8  4  0
  2 10  3  0
  2 11  3  0
  2 17  1  0
  3  8  2  0
  3 10  3  0
  3 13  2  0
  3 18  2  0
  4  6  3  0
  4  7  1  0
  4  9  1  0
  4 10  2  0
  4 12  4  0
  4 14  4  0
  4 16  2  0
  4 19  2  0
  5  7  1  0
  5 12  3  0
  6  9  1  0
  6 10  2  0
  7  9  4  0
  7 11  3  0
  7 15  4  0
  7 17  3  0
  8 14  4  0
  9 11  4  0
  9 18  1  0
 10 11  4  0
 10 12  1  0
 10 15  2  0
 10 19  3  0
 11 13  4  0
 12 16  4  0
 12 17  4  0
 12 18  4  0
 13 14  1  0
 14 15  2  0
 15 19  4  0
 16 17  3  0
 17 19  4  0
M  END
$$$$

 Created by Python create_sdf_string function

 34 24  0  0  0  0  0  0  0  0999 V2000
    4.4432   -7.7887   17.0151 C   0  0  0  0  0  0  0  0  0  0  0  0
   10.5586   -5.2576   20.4983 C   0  0  0  0  0  0  0  0  0  0  0  0
   11.4019   -3.3053   16.1114 C   0  0  0  0  0  0  0  0  0  0  0  0
    6.9002   -6.8995   16.2702 C   0  0  0  0  0  0  0  0  0  0  0  0
    0.5892   -9.8387   16.8411 C   0  0  0  0  0  0  0  0  0  0  0  0
    3.3789   -7.3303   16.8440 C   0  0  0  0  0  0  0  0  0  0  0  0
    0.1187  -10.4699   15.5501 C   0  0  0  0  0  0  0  0  0  0  0  0
   11.0712   -4.0211   20.4539 C   0  0  0  0  0  0  0  0  0  0  0  0
    7.1874   -8.9465   16.6529 C   0  0  0  0  0  0  0  0  0  0  0  0
    9.9332   -3.7876   16.2732 C   0  0  0  0  0  0  0  0  0  0  0  0
   -0.8742  -11.4765   15.6999 C   0  0  0  0  0  0  0  0  0  0  0  0
    7.2516   -8.2868   16.2858 C   0  0  0  0  0  0  0  0  0  0  0  0
   -1.0165  -11.5863   13.4395 C   0  0  0  0  0  0  0  0  0  0  0  0
    1.7676   -6.9300   16.6866 C   0  0  0  0  0  0  0  0  0  0  0  0
    3.1615   -8.3781   16.5794 C   0  0  0  0  0  0  0  0  0  0  0  0
    8.7796   -7.8334   17.3544 C   0  0  0  0  0  0  0  0  0  0  0  0
   -1.2720  -11.8319   14.6400 C   0  0  0  0  0  0  0  0  0  0  0  0
    0.9442   -7.6113   16.4759 C   0  0  0  0  0  0  0  0  0  0  0  0
   10.0756   -3.9918   16.2858 C   0  0  0  0  0  0  0  0  0  0  0  0
    5.4281   -7.6600   18.0348 O   0  0  0  0  0  0  0  0  0  0  0  0
    8.1179   -7.3725   15.4481 C   0  0  0  0  0  0  0  0  0  0  0  0
    7.6736   -7.3929   18.0893 C   0  0  0  0  0  0  0  0  0  0  0  0
   11.1102   -3.4999   19.2411 N   0  0  0  0  0  0  0  0  0  0  0  0
    0.6012  -10.2240   14.1682 C   0  0  0  0  0  0  0  0  0  0  0  0
    8.4059   -7.9879   15.1568 C   0  0  0  0  0  0  0  0  0  0  0  0
   10.6222   -4.1152   18.2240 C   0  0  0  0  0  0  0  0  0  0  0  0
    2.8345   -9.1885   15.9403 C   0  0  0  0  0  0  0  0  0  0  0  0
   10.1839   -4.7438   17.7534 C   0  0  0  0  0  0  0  0  0  0  0  0
    5.6442   -7.5424   17.2588 C   0  0  0  0  0  0  0  0  0  0  0  0
   10.0663   -5.9909   19.5197 C   0  0  0  0  0  0  0  0  0  0  0  0
   11.3017   -3.3984   16.4875 C   0  0  0  0  0  0  0  0  0  0  0  0
    9.0210   -6.5997   18.1693 C   0  0  0  0  0  0  0  0  0  0  0  0
    0.9650   -8.4866   16.5539 N   0  0  0  0  0  0  0  0  0  0  0  0
   -0.0214  -10.8002   13.1650 C   0  0  0  0  0  0  0  0  0  0  0  0
  1 15  1  0
  2  8  4  0
  2 30  4  0
  3 31  4  0
  5  7  1  0
  5 33  1  0
  7 11  4  0
  7 24  4  0
  8 23  4  0
  9 12  4  0
 10 19  4  0
 11 17  4  0
 13 17  4  0
 13 34  4  0
 14 18  4  0
 15 27  4  0
 18 33  4  0
 20 29  1  0
 21 25  4  0
 22 32  1  0
 23 26  4  0
 24 34  4  0
 26 28  4  0
 30 32  4  0
M  END
$$$$

 Created by Python create_sdf_string function

 34 49  0  0  0  0  0  0  0  0999 V2000
    3.7647   -6.1462   17.6209 O   0  0  0  0  0  0  0  0  0  0  0  0
   10.7095   -4.6835   20.8859 C   0  0  0  0  0  0  0  0  0  0  0  0
    0.4930   -9.8259   16.7875 C   0  0  0  0  0  0  0  0  0  0  0  0
    4.8368   -6.6304   15.3033 S   0  0  0  0  0  0  0  0  0  0  0  0
    6.3442   -8.6443   16.2218 C   0  0  0  0  0  0  0  0  0  0  0  0
   -1.1295  -11.0644   15.7450 C   0  0  0  0  0  0  0  0  0  0  0  0
   -1.3041  -11.5184   13.1189 C   0  0  0  0  0  0  0  0  0  0  0  0
    2.4852   -8.9580   16.9408 F   0  0  0  0  0  0  0  0  0  0  0  0
    5.1344   -6.7476   16.3002 Cl  0  0  0  0  0  0  0  0  0  0  0  0
    9.0395   -7.2382   17.1863 F   0  0  0  0  0  0  0  0  0  0  0  0
   10.1009   -3.9293   16.6442 Cl  0  0  0  0  0  0  0  0  0  0  0  0
    8.2508   -7.3522   18.2688 C   0  0  0  0  0  0  0  0  0  0  0  0
   10.5978   -3.1749   19.2226 N   0  0  0  0  0  0  0  0  0  0  0  0
    0.6067  -10.3104   14.1147 C   0  0  0  0  0  0  0  0  0  0  0  0
    8.3216   -7.7912   14.3923 C   0  0  0  0  0  0  0  0  0  0  0  0
   11.1201   -4.3815   18.5030 C   0  0  0  0  0  0  0  0  0  0  0  0
    3.3590   -9.2381   15.8507 C   0  0  0  0  0  0  0  0  0  0  0  0
   10.2305   -4.5411   18.0619 C   0  0  0  0  0  0  0  0  0  0  0  0
    9.3064   -4.8099   20.0270 F   0  0  0  0  0  0  0  0  0  0  0  0
   11.5080   -3.7562   16.7787 C   0  0  0  0  0  0  0  0  0  0  0  0
    1.8820   -7.0914   16.8670 S   0  0  0  0  0  0  0  0  0  0  0  0
   12.1175   -3.4257   13.5178 He  0  0  0  0  0  0  0  0  0  0  0  0
    6.3663   -6.9105   16.4722 He  0  0  0  0  0  0  0  0  0  0  0  0
   -0.4551   -9.8561   15.8057 He  0  0  0  0  0  0  0  0  0  0  0  0
   11.2773   -3.6130   20.7114 He  0  0  0  0  0  0  0  0  0  0  0  0
    8.1889   -5.6264   17.6332 He  0  0  0  0  0  0  0  0  0  0  0  0
    8.6248   -8.5479   16.3985 He  0  0  0  0  0  0  0  0  0  0  0  0
   -1.1259  -11.7112   14.8131 He  0  0  0  0  0  0  0  0  0  0  0  0
    0.0907   -6.5084   18.0346 He  0  0  0  0  0  0  0  0  0  0  0  0
    5.5978   -7.6611   18.2303 He  0  0  0  0  0  0  0  0  0  0  0  0
    6.8984   -8.1957   16.6464 He  0  0  0  0  0  0  0  0  0  0  0  0
    6.2583   -8.4043   17.2345 He  0  0  0  0  0  0  0  0  0  0  0  0
    8.4217   -6.4655   18.1915 He  0  0  0  0  0  0  0  0  0  0  0  0
    0.1297  -10.6849   13.7855 He  0  0  0  0  0  0  0  0  0  0  0  0
  1  5  3  0
  1  6  2  0
  1  8  4  0
  1  9  1  0
  1 10  4  0
  1 11  1  0
  1 14  1  0
  1 17  2  0
  1 21  2  0
  2  9  4  0
  2 10  2  0
  2 18  4  0
  2 20  4  0
  2 21  4  0
  3  4  3  0
  3 16  4  0
  3 21  1  0
  4  7  2  0
  4 11  3  0
  4 14  1  0
  5 13  2  0
  5 18  4  0
  5 19  4  0
  6  9  2  0
  7 12  2  0
  7 21  3  0
  8 10  4  0
  8 13  4  0
  8 15  1  0
  8 17  2  0
  8 19  1  0
  9 10  1  0
  9 13  4  0
  9 17  4  0
  9 20  4  0
 10 13  1  0
 10 18  3  0
 10 20  1  0
 10 21  4  0
 11 17  4  0
 13 19  3  0
 15 19  1  0
 15 21  1  0
 16 18  4  0
 16 19  4  0
 16 21  4  0
 17 20  2  0
 19 20  3  0
 20 21  3  0
M  END
$$$$

 Created by Python create_sdf_string function

 34 18  0  0  0  0  0  0  0  0999 V2000
    3.2483   -7.2146   16.7918 C   0  0  0  0  0  0  0  0  0  0  0  0
   10.4135   -4.6777   20.8916 C   0  0  0  0  0  0  0  0  0  0  0  0
   11.5403   -3.6323   15.4597 C   0  0  0  0  0  0  0  0  0  0  0  0
    6.2894   -7.3150   16.4033 C   0  0  0  0  0  0  0  0  0  0  0  0
    0.4198   -9.4822   16.7677 C   0  0  0  0  0  0  0  0  0  0  0  0
    4.4089   -7.4419   15.8522 C   0  0  0  0  0  0  0  0  0  0  0  0
    0.0264  -10.1753   15.6034 C   0  0  0  0  0  0  0  0  0  0  0  0
   10.9621   -3.5850   20.6479 N   0  0  0  0  0  0  0  0  0  0  0  0
    6.4121   -8.4024   16.2583 C   0  0  0  0  0  0  0  0  0  0  0  0
    9.0327   -5.8868   17.4057 C   0  0  0  0  0  0  0  0  0  0  0  0
   -1.0425  -11.0415   15.7264 C   0  0  0  0  0  0  0  0  0  0  0  0
    8.3550   -8.2168   16.3524 C   0  0  0  0  0  0  0  0  0  0  0  0
   -1.0455  -11.6022   13.4230 C   0  0  0  0  0  0  0  0  0  0  0  0
    2.1937   -8.7097   16.6068 C   0  0  0  0  0  0  0  0  0  0  0  0
    4.7330   -7.6328   16.2421 C   0  0  0  0  0  0  0  0  0  0  0  0
    8.7808   -6.6391   16.7930 C   0  0  0  0  0  0  0  0  0  0  0  0
   -1.4869  -11.6701   14.6619 C   0  0  0  0  0  0  0  0  0  0  0  0
    0.8162   -7.4422   16.8930 N   0  0  0  0  0  0  0  0  0  0  0  0
   10.0634   -4.1575   16.3638 C   0  0  0  0  0  0  0  0  0  0  0  0
    5.6857   -7.8383   18.3885 O   0  0  0  0  0  0  0  0  0  0  0  0
    7.0871   -8.0818   16.5998 C   0  0  0  0  0  0  0  0  0  0  0  0
    8.1736   -7.5034   18.2068 C   0  0  0  0  0  0  0  0  0  0  0  0
   11.0812   -3.3213   19.3142 N   0  0  0  0  0  0  0  0  0  0  0  0
    0.5300  -10.1458   14.2982 C   0  0  0  0  0  0  0  0  0  0  0  0
    8.4568   -8.0910   14.7658 C   0  0  0  0  0  0  0  0  0  0  0  0
   10.6452   -4.0573   18.3924 C   0  0  0  0  0  0  0  0  0  0  0  0
    3.1528   -8.9987   16.0623 C   0  0  0  0  0  0  0  0  0  0  0  0
   10.2189   -4.6481   17.9263 C   0  0  0  0  0  0  0  0  0  0  0  0
    6.1097   -8.3586   17.1978 C   0  0  0  0  0  0  0  0  0  0  0  0
   10.0043   -5.4189   19.7072 C   0  0  0  0  0  0  0  0  0  0  0  0
   11.3881   -3.6113   16.4894 C   0  0  0  0  0  0  0  0  0  0  0  0
    8.9092   -6.3211   18.0405 C   0  0  0  0  0  0  0  0  0  0  0  0
    1.8422   -7.4578   16.5304 C   0  0  0  0  0  0  0  0  0  0  0  0
    0.0016  -10.8010   13.3507 C   0  0  0  0  0  0  0  0  0  0  0  0
  2  8  4  0
  2 30  4  0
  3 31  4  0
  5  7  1  0
  5 14  1  0
  7 11  4  0
  7 24  4  0
  8 23  4  0
 11 17  4  0
 12 25  1  0
 13 17  4  0
 13 34  4  0
 14 27  4  0
 18 33  4  0
 19 31  4  0
 23 26  4  0
 24 34  4  0
 26 28  4  0
M  END
$$$$

 Created by Python create_sdf_string function

 34 82  0  0  0  0  0  0  0  0999 V2000
   10.5619   -4.5104   20.9809 F   0  0  0  0  0  0  0  0  0  0  0  0
   10.9931   -4.5353   13.8312 P   0  0  0  0  0  0  0  0  0  0  0  0
    6.1567   -6.5708   16.7457 S   0  0  0  0  0  0  0  0  0  0  0  0
   -0.0239   -9.8636   16.4365 C   0  0  0  0  0  0  0  0  0  0  0  0
   -0.4740   -9.9476   16.2002 I   0  0  0  0  0  0  0  0  0  0  0  0
   10.8347   -3.4631   20.7084 N   0  0  0  0  0  0  0  0  0  0  0  0
    6.4188   -9.2319   15.5090 S   0  0  0  0  0  0  0  0  0  0  0  0
    7.5838   -5.8553   17.5100 O   0  0  0  0  0  0  0  0  0  0  0  0
    7.1626   -8.5629   17.1994 O   0  0  0  0  0  0  0  0  0  0  0  0
   -0.8363  -11.5311   13.0838 C   0  0  0  0  0  0  0  0  0  0  0  0
    2.2099   -9.6619   16.9986 N   0  0  0  0  0  0  0  0  0  0  0  0
    3.2824   -7.2394   17.5506 S   0  0  0  0  0  0  0  0  0  0  0  0
    7.5137   -6.7998   15.9517 F   0  0  0  0  0  0  0  0  0  0  0  0
   -1.7188  -12.1016   14.8004 C   0  0  0  0  0  0  0  0  0  0  0  0
    1.1007   -7.1778   17.4530 C   0  0  0  0  0  0  0  0  0  0  0  0
   10.5356   -4.7489   16.5201 C   0  0  0  0  0  0  0  0  0  0  0  0
    8.4279   -8.3120   17.9358 Cl  0  0  0  0  0  0  0  0  0  0  0  0
    8.2134   -7.6430   18.1438 C   0  0  0  0  0  0  0  0  0  0  0  0
   11.0679   -3.2842   19.5618 N   0  0  0  0  0  0  0  0  0  0  0  0
    0.2856  -10.7135   14.4064 C   0  0  0  0  0  0  0  0  0  0  0  0
    8.5376   -7.8688   14.5917 C   0  0  0  0  0  0  0  0  0  0  0  0
   10.7833   -4.8200   18.9547 C   0  0  0  0  0  0  0  0  0  0  0  0
    3.4258   -8.9179   16.3094 C   0  0  0  0  0  0  0  0  0  0  0  0
    4.5755   -8.8261   18.1834 P   0  0  0  0  0  0  0  0  0  0  0  0
   10.9323   -4.4756   20.2529 N   0  0  0  0  0  0  0  0  0  0  0  0
    2.8977   -5.7177   16.3651 He  0  0  0  0  0  0  0  0  0  0  0  0
    5.3040   -6.0593   15.0963 He  0  0  0  0  0  0  0  0  0  0  0  0
   -1.5413  -11.3209   15.8323 He  0  0  0  0  0  0  0  0  0  0  0  0
    5.4703   -7.6157   18.3088 He  0  0  0  0  0  0  0  0  0  0  0  0
   10.2831   -4.4342   18.0119 He  0  0  0  0  0  0  0  0  0  0  0  0
   11.3991   -3.7462   17.0986 He  0  0  0  0  0  0  0  0  0  0  0  0
    9.2432   -6.5108   17.2796 He  0  0  0  0  0  0  0  0  0  0  0  0
    2.2454   -7.3120   15.7556 He  0  0  0  0  0  0  0  0  0  0  0  0
    0.1974  -10.6818   13.1548 He  0  0  0  0  0  0  0  0  0  0  0  0
  1  4  3  0
  1  6  4  0
  1  8  4  0
  1  9  3  0
  1 17  1  0
  1 21  3  0
  1 25  3  0
  2  3  1  0
  2  4  1  0
  2  6  3  0
  2 10  1  0
  2 20  1  0
  2 23  2  0
  2 24  1  0
  2 25  3  0
  3  6  1  0
  3  7  4  0
  3  9  3  0
  3 13  4  0
  3 17  3  0
  3 18  1  0
  3 19  2  0
  3 20  2  0
  3 22  1  0
  4  5  1  0
  4  7  4  0
  4  9  4  0
  4 13  3  0
  4 15  2  0
  4 17  3  0
  4 24  4  0
  5 12  4  0
  5 17  4  0
  5 22  2  0
  5 25  4  0
  6  7  3  0
  6  8  1  0
  6 11  4  0
  6 12  1  0
  6 15  4  0
  6 19  4  0
  7  8  1  0
  7 12  3  0
  7 14  1  0
  7 21  1  0
  7 24  1  0
  7 25  2  0
  8 14  1  0
  8 19  3  0
  8 21  3  0
  9 11  1  0
  9 15  3  0
  9 18  4  0
  9 21  4  0
  9 23  1  0
 10 14  4  0
 10 25  3  0
 11 13  4  0
 11 19  2  0
 11 21  1  0
 11 23  4  0
 12 13  1  0
 13 14  2  0
 13 19  4  0
 13 21  1  0
 13 22  2  0
 13 25  3  0
 14 15  2  0
 14 19  4  0
 14 20  3  0
 15 25  4  0
 16 23  3  0
 17 19  4  0
 17 20  3  0
 17 21  4  0
 17 25  2  0
 19 22  4  0
 19 25  3  0
 20 24  4  0
 21 22  1  0
 22 25  1  0
 23 24  4  0
M  END
$$$$

 Created by Python create_sdf_string function

 34 29  0  0  0  0  0  0  0  0999 V2000
    2.7639   -6.8559   16.1107 C   0  0  0  0  0  0  0  0  0  0  0  0
   10.5202   -4.5894   21.2109 N   0  0  0  0  0  0  0  0  0  0  0  0
   10.6782   -4.2660   15.9442 C   0  0  0  0  0  0  0  0  0  0  0  0
    6.4428   -7.1845   16.5356 C   0  0  0  0  0  0  0  0  0  0  0  0
    0.2825   -9.6291   16.8297 C   0  0  0  0  0  0  0  0  0  0  0  0
    5.6598   -6.3994   15.3980 O   0  0  0  0  0  0  0  0  0  0  0  0
   -0.1264  -10.2998   15.7361 C   0  0  0  0  0  0  0  0  0  0  0  0
   10.9156   -3.4132   20.9507 N   0  0  0  0  0  0  0  0  0  0  0  0
    6.8924   -8.9476   15.6495 C   0  0  0  0  0  0  0  0  0  0  0  0
    8.0112   -6.2018   17.5003 C   0  0  0  0  0  0  0  0  0  0  0  0
   -1.2363  -11.2034   15.8243 C   0  0  0  0  0  0  0  0  0  0  0  0
    6.9321   -8.3730   17.1120 C   0  0  0  0  0  0  0  0  0  0  0  0
   -0.9758  -11.7047   13.5294 C   0  0  0  0  0  0  0  0  0  0  0  0
    1.9999   -9.3166   16.9240 C   0  0  0  0  0  0  0  0  0  0  0  0
    3.5409   -7.7569   16.7650 C   0  0  0  0  0  0  0  0  0  0  0  0
    7.7193   -6.9813   15.6344 C   0  0  0  0  0  0  0  0  0  0  0  0
   -1.5613  -11.8204   14.7347 C   0  0  0  0  0  0  0  0  0  0  0  0
    1.3907   -7.2773   16.3770 C   0  0  0  0  0  0  0  0  0  0  0  0
   10.3527   -4.1655   16.6402 C   0  0  0  0  0  0  0  0  0  0  0  0
    5.3525   -7.9303   17.6427 C   0  0  0  0  0  0  0  0  0  0  0  0
    8.7055   -8.0639   17.6755 C   0  0  0  0  0  0  0  0  0  0  0  0
    8.3795   -7.5832   17.8232 C   0  0  0  0  0  0  0  0  0  0  0  0
   11.0358   -3.2858   19.6269 N   0  0  0  0  0  0  0  0  0  0  0  0
    0.4580  -10.2361   14.4157 C   0  0  0  0  0  0  0  0  0  0  0  0
    8.3648   -8.0772   15.1678 C   0  0  0  0  0  0  0  0  0  0  0  0
   10.5811   -4.2680   18.8838 C   0  0  0  0  0  0  0  0  0  0  0  0
    2.8642   -8.9900   16.8997 C   0  0  0  0  0  0  0  0  0  0  0  0
   10.1454   -4.8996   18.0031 C   0  0  0  0  0  0  0  0  0  0  0  0
    5.0843   -8.8830   17.5673 O   0  0  0  0  0  0  0  0  0  0  0  0
   10.2611   -5.0661   19.8297 N   0  0  0  0  0  0  0  0  0  0  0  0
   11.1551   -3.7777   16.4936 C   0  0  0  0  0  0  0  0  0  0  0  0
    9.4506   -5.6040   17.2448 C   0  0  0  0  0  0  0  0  0  0  0  0
    1.5053   -7.5764   16.4987 C   0  0  0  0  0  0  0  0  0  0  0  0
    0.0469  -10.8832   13.4254 C   0  0  0  0  0  0  0  0  0  0  0  0
  1 15  4  0
  1 18  4  0
  2  8  4  0
  2 30  4  0
  3 31  4  0
  5  7  1  0
  5 14  1  0
  7 11  4  0
  7 24  4  0
  8 23  4  0
  9 12  1  0
  9 25  1  0
 11 17  4  0
 13 17  4  0
 13 34  4  0
 14 27  4  0
 15 20  1  0
 15 27  4  0
 16 25  1  0
 18 33  4  0
 19 31  4  0
 20 29  2  0
 21 22  1  0
 23 26  4  0
 24 34  4  0
 26 28  4  0
 26 30  4  0
 28 30  4  0
 28 32  4  0
M  END
$$$$

 Created by Python create_sdf_string function

 34 74  0  0  0  0  0  0  0  0999 V2000
   10.1545   -4.8716   21.0870 N   0  0  0  0  0  0  0  0  0  0  0  0
    0.1142   -9.3067   16.7318 C   0  0  0  0  0  0  0  0  0  0  0  0
   -0.3580  -10.2110   15.7530 C   0  0  0  0  0  0  0  0  0  0  0  0
   10.6943   -3.5853   20.9557 N   0  0  0  0  0  0  0  0  0  0  0  0
    8.2707   -7.2608   16.4208 C   0  0  0  0  0  0  0  0  0  0  0  0
    6.3374   -8.4702   17.6708 P   0  0  0  0  0  0  0  0  0  0  0  0
   -0.8111  -12.1303   13.3610 C   0  0  0  0  0  0  0  0  0  0  0  0
    2.6981   -9.7452   16.4905 C   0  0  0  0  0  0  0  0  0  0  0  0
    4.4235   -7.6947   16.0258 C   0  0  0  0  0  0  0  0  0  0  0  0
    7.3547   -7.8403   14.5781 C   0  0  0  0  0  0  0  0  0  0  0  0
   -1.3323  -11.2413   14.9321 C   0  0  0  0  0  0  0  0  0  0  0  0
   10.4251   -4.4090   17.3113 C   0  0  0  0  0  0  0  0  0  0  0  0
    5.3924   -7.9385   17.5855 C   0  0  0  0  0  0  0  0  0  0  0  0
    8.5028   -8.0770   17.7724 C   0  0  0  0  0  0  0  0  0  0  0  0
   10.8173   -3.2367   19.5081 N   0  0  0  0  0  0  0  0  0  0  0  0
    0.1980  -10.4590   13.6442 C   0  0  0  0  0  0  0  0  0  0  0  0
   10.6538   -4.1627   18.5299 C   0  0  0  0  0  0  0  0  0  0  0  0
    3.0138   -8.9790   16.8929 C   0  0  0  0  0  0  0  0  0  0  0  0
   10.4651   -5.0952   18.1658 C   0  0  0  0  0  0  0  0  0  0  0  0
    6.2631   -8.2178   18.2099 F   0  0  0  0  0  0  0  0  0  0  0  0
   11.5383   -3.5480   16.9469 C   0  0  0  0  0  0  0  0  0  0  0  0
    6.9498   -7.4578   15.9868 Cl  0  0  0  0  0  0  0  0  0  0  0  0
    0.0589   -6.5057   16.4516 S   0  0  0  0  0  0  0  0  0  0  0  0
    0.9121  -10.6603   13.6082 C   0  0  0  0  0  0  0  0  0  0  0  0
    1.9411   -7.6109   17.2254 He  0  0  0  0  0  0  0  0  0  0  0  0
    9.9617   -3.5149   16.2927 He  0  0  0  0  0  0  0  0  0  0  0  0
    6.4921   -8.2177   17.1048 He  0  0  0  0  0  0  0  0  0  0  0  0
    5.1600   -6.4255   17.1482 He  0  0  0  0  0  0  0  0  0  0  0  0
    5.9329  -10.3476   14.8096 He  0  0  0  0  0  0  0  0  0  0  0  0
   -1.1068  -10.9705   15.5962 He  0  0  0  0  0  0  0  0  0  0  0  0
    3.4510   -5.9138   15.8935 He  0  0  0  0  0  0  0  0  0  0  0  0
    7.9823   -9.0436   19.0411 He  0  0  0  0  0  0  0  0  0  0  0  0
    8.5089   -8.0073   15.1234 He  0  0  0  0  0  0  0  0  0  0  0  0
   10.1109   -4.5499   19.9169 He  0  0  0  0  0  0  0  0  0  0  0  0
  1  4  4  0
  1  6  4  0
  1  7  1  0
  1 10  1  0
  2  3  1  0
  2 11  2  0
  2 16  2  0
  2 19  3  0
  2 20  2  0
  2 22  4  0
  3 16  4  0
  3 19  1  0
  3 22  2  0
  3 23  1  0
  4  5  1  0
  4 15  4  0
  4 23  2  0
  4 24  1  0
  5  6  1  0
  5  9  3  0
  5 10  4  0
  5 14  2  0
  5 17  1  0
  5 22  4  0
  6 12  3  0
  6 13  1  0
  6 14  1  0
  6 16  2  0
  6 17  2  0
  6 23  3  0
  7  9  1  0
  7 10  4  0
  7 12  1  0
  7 22  3  0
  7 24  4  0
  8 10  2  0
  8 13  1  0
  8 18  4  0
  8 19  4  0
  9 10  1  0
  9 15  1  0
  9 17  4  0
  9 19  3  0
  9 22  2  0
  9 23  3  0
 10 11  4  0
 10 16  2  0
 10 17  2  0
 10 20  1  0
 10 22  2  0
 11 23  3  0
 11 24  2  0
 12 14  4  0
 12 20  1  0
 12 21  4  0
 12 22  1  0
 13 14  1  0
 13 18  1  0
 13 20  2  0
 14 18  2  0
 14 20  1  0
 14 22  2  0
 15 17  4  0
 15 19  1  0
 16 17  4  0
 16 24  3  0
 17 19  4  0
 17 20  1  0
 17 21  4  0
 18 22  4  0
 19 22  3  0
 20 21  1  0
 21 23  4  0
 22 23  3  0
M  END
$$$$

 Created by Python create_sdf_string function

 34 23  0  0  0  0  0  0  0  0999 V2000
    1.4754   -7.6567   16.5222 C   0  0  0  0  0  0  0  0  0  0  0  0
   10.2527   -4.8576   20.9437 N   0  0  0  0  0  0  0  0  0  0  0  0
   10.1745   -4.3338   16.4375 C   0  0  0  0  0  0  0  0  0  0  0  0
    6.7089   -8.1813   16.7280 C   0  0  0  0  0  0  0  0  0  0  0  0
    0.1714   -9.1790   16.6657 C   0  0  0  0  0  0  0  0  0  0  0  0
    5.1718   -7.2465   16.6766 C   0  0  0  0  0  0  0  0  0  0  0  0
   -0.0925  -10.0694   15.5643 C   0  0  0  0  0  0  0  0  0  0  0  0
   10.6807   -3.6365   20.9059 N   0  0  0  0  0  0  0  0  0  0  0  0
    6.1529   -9.2669   15.2281 C   0  0  0  0  0  0  0  0  0  0  0  0
    8.5023   -6.8763   16.6494 C   0  0  0  0  0  0  0  0  0  0  0  0
   -1.1676  -10.8915   15.7191 N   0  0  0  0  0  0  0  0  0  0  0  0
    6.3517   -8.2080   17.5318 C   0  0  0  0  0  0  0  0  0  0  0  0
   -0.6987  -11.7711   13.5504 C   0  0  0  0  0  0  0  0  0  0  0  0
    2.5476   -9.1210   16.9703 C   0  0  0  0  0  0  0  0  0  0  0  0
    3.9108   -7.9585   16.4263 C   0  0  0  0  0  0  0  0  0  0  0  0
    7.6119   -8.0889   15.2982 C   0  0  0  0  0  0  0  0  0  0  0  0
   -1.3874  -11.7097   14.6906 C   0  0  0  0  0  0  0  0  0  0  0  0
    2.7434   -6.7991   15.9251 C   0  0  0  0  0  0  0  0  0  0  0  0
   10.1231   -4.5517   16.7146 C   0  0  0  0  0  0  0  0  0  0  0  0
    5.1465   -8.3041   17.5804 C   0  0  0  0  0  0  0  0  0  0  0  0
    8.1084   -7.9088   18.3982 C   0  0  0  0  0  0  0  0  0  0  0  0
    8.6818   -7.9725   17.9641 C   0  0  0  0  0  0  0  0  0  0  0  0
   10.9979   -3.2217   19.6716 N   0  0  0  0  0  0  0  0  0  0  0  0
    0.6661  -10.1318   14.3156 C   0  0  0  0  0  0  0  0  0  0  0  0
    8.5991   -8.0729   14.7211 C   0  0  0  0  0  0  0  0  0  0  0  0
   10.7717   -3.9045   18.5607 C   0  0  0  0  0  0  0  0  0  0  0  0
    2.7834   -9.1000   17.0029 C   0  0  0  0  0  0  0  0  0  0  0  0
   10.1626   -5.0667   18.5345 C   0  0  0  0  0  0  0  0  0  0  0  0
    6.1442   -8.2438   18.4932 O   0  0  0  0  0  0  0  0  0  0  0  0
   10.0255   -5.3265   19.5553 C   0  0  0  0  0  0  0  0  0  0  0  0
   11.2208   -3.5034   16.9718 C   0  0  0  0  0  0  0  0  0  0  0  0
    7.5048   -7.5160   16.1284 C   0  0  0  0  0  0  0  0  0  0  0  0
    1.3564   -7.1633   16.2750 C   0  0  0  0  0  0  0  0  0  0  0  0
    0.3545  -10.9352   13.3795 C   0  0  0  0  0  0  0  0  0  0  0  0
  1 33  4  0
  2  8  4  0
  2 30  4  0
  3 19  4  0
  3 31  4  0
  5  7  1  0
  7 11  4  0
  7 24  4  0
  8 23  4  0
 10 32  4  0
 11 17  4  0
 12 20  1  0
 13 17  4  0
 13 34  4  0
 14 27  4  0
 16 25  1  0
 18 33  4  0
 21 22  1  0
 23 26  4  0
 24 34  4  0
 26 28  4  0
 26 31  4  0
 28 30  4  0
M  END
$$$$

 Created by Python create_sdf_string function

 34 92  0  0  0  0  0  0  0  0999 V2000
    0.5763   -8.4206   15.3339 P   0  0  0  0  0  0  0  0  0  0  0  0
   10.6573   -4.1896   15.9378 S   0  0  0  0  0  0  0  0  0  0  0  0
   -0.3318   -9.3046   16.4908 C   0  0  0  0  0  0  0  0  0  0  0  0
    6.2241   -6.5126   19.0528 C   0  0  0  0  0  0  0  0  0  0  0  0
   -0.2094   -9.8333   15.7181 C   0  0  0  0  0  0  0  0  0  0  0  0
   10.1422   -3.2532   20.1914 N   0  0  0  0  0  0  0  0  0  0  0  0
    6.3218  -10.0155   13.2918 O   0  0  0  0  0  0  0  0  0  0  0  0
   -1.4912  -10.5946   15.6278 N   0  0  0  0  0  0  0  0  0  0  0  0
   -1.1316  -11.2339   12.9603 P   0  0  0  0  0  0  0  0  0  0  0  0
    3.7508   -6.4968   18.0248 O   0  0  0  0  0  0  0  0  0  0  0  0
   -1.1593  -11.7217   14.7426 C   0  0  0  0  0  0  0  0  0  0  0  0
    2.6260   -8.0898   14.7067 F   0  0  0  0  0  0  0  0  0  0  0  0
   10.0980   -4.2655   16.1748 C   0  0  0  0  0  0  0  0  0  0  0  0
    5.1789   -8.5011   17.6417 C   0  0  0  0  0  0  0  0  0  0  0  0
    8.1720   -6.7796   19.3806 F   0  0  0  0  0  0  0  0  0  0  0  0
    8.3524   -7.7523   17.9920 C   0  0  0  0  0  0  0  0  0  0  0  0
   10.8949   -3.2753   19.5375 N   0  0  0  0  0  0  0  0  0  0  0  0
    1.2078   -9.3385   14.2355 C   0  0  0  0  0  0  0  0  0  0  0  0
    8.0440   -7.5917   14.8576 C   0  0  0  0  0  0  0  0  0  0  0  0
   10.2932   -3.5225   18.4364 S   0  0  0  0  0  0  0  0  0  0  0  0
    2.8309   -9.6765   17.3944 S   0  0  0  0  0  0  0  0  0  0  0  0
   10.1859   -4.3671   19.0560 C   0  0  0  0  0  0  0  0  0  0  0  0
   10.8234   -3.3505   16.8689 C   0  0  0  0  0  0  0  0  0  0  0  0
    0.5115   -6.6103   19.4586 C   0  0  0  0  0  0  0  0  0  0  0  0
   -0.2733  -10.5840   13.8278 C   0  0  0  0  0  0  0  0  0  0  0  0
   10.6626   -4.7407   20.8670 He  0  0  0  0  0  0  0  0  0  0  0  0
    6.0841   -8.1623   16.8335 He  0  0  0  0  0  0  0  0  0  0  0  0
    9.9864   -5.5970   16.0573 He  0  0  0  0  0  0  0  0  0  0  0  0
    6.4223  -10.1497   18.1396 He  0  0  0  0  0  0  0  0  0  0  0  0
    2.7901   -9.3872   15.1578 He  0  0  0  0  0  0  0  0  0  0  0  0
    7.9433   -9.5311   14.1387 He  0  0  0  0  0  0  0  0  0  0  0  0
   10.0958   -4.9381   18.0164 He  0  0  0  0  0  0  0  0  0  0  0  0
    5.9215   -8.8491   18.3264 He  0  0  0  0  0  0  0  0  0  0  0  0
    8.1390   -7.5590   15.0978 He  0  0  0  0  0  0  0  0  0  0  0  0
  1  9  3  0
  1 12  4  0
  1 13  4  0
  1 15  2  0
  2  4  4  0
  2  5  2  0
  2  7  4  0
  2  8  1  0
  2 10  3  0
  2 12  4  0
  2 13  4  0
  2 17  3  0
  2 18  1  0
  2 21  4  0
  3  5  1  0
  3 10  2  0
  3 12  2  0
  3 22  3  0
  4  9  1  0
  4 10  1  0
  4 12  2  0
  4 13  3  0
  4 14  2  0
  4 15  4  0
  4 16  1  0
  4 20  4  0
  4 21  4  0
  5  7  1  0
  5  8  4  0
  5 10  4  0
  5 11  4  0
  5 18  4  0
  5 23  2  0
  5 24  1  0
  6  7  2  0
  6 10  2  0
  6 11  1  0
  6 15  2  0
  6 17  4  0
  6 24  4  0
  6 25  1  0
  7  8  1  0
  7  9  3  0
  7 10  1  0
  7 12  2  0
  7 13  1  0
  7 14  4  0
  7 16  3  0
  7 21  4  0
  7 24  1  0
  8 11  4  0
  8 18  2  0
  8 22  1  0
  8 24  2  0
  9 10  3  0
  9 19  1  0
  9 25  1  0
 10 17  4  0
 10 22  1  0
 10 23  4  0
 10 25  4  0
 11 15  3  0
 11 20  3  0
 11 24  1  0
 12 14  2  0
 12 16  4  0
 12 21  4  0
 12 22  3  0
 12 23  2  0
 12 24  3  0
 13 17  3  0
 13 22  2  0
 14 15  2  0
 14 16  3  0
 14 25  2  0
 15 16  1  0
 15 17  1  0
 15 18  1  0
 15 19  3  0
 15 20  2  0
 15 23  4  0
 17 20  4  0
 17 24  4  0
 18 25  4  0
 19 25  3  0
 20 23  4  0
 20 24  3  0
 20 25  2  0
 21 22  1  0
 22 23  4  0
 22 24  4  0
 23 24  1  0
M  END
$$$$

 Created by Python create_sdf_string function

 34 23  0  0  0  0  0  0  0  0999 V2000
    1.3890   -8.4696   16.0647 C   0  0  0  0  0  0  0  0  0  0  0  0
   10.2065   -4.8099   20.6665 C   0  0  0  0  0  0  0  0  0  0  0  0
   10.5265   -3.8483   15.9185 C   0  0  0  0  0  0  0  0  0  0  0  0
    6.2116   -8.3621   16.6084 C   0  0  0  0  0  0  0  0  0  0  0  0
   -0.3200   -9.0803   16.7366 C   0  0  0  0  0  0  0  0  0  0  0  0
    6.6113   -7.1896   18.2228 C   0  0  0  0  0  0  0  0  0  0  0  0
   -0.3362   -9.8562   15.6478 C   0  0  0  0  0  0  0  0  0  0  0  0
   10.6748   -3.7247   20.5572 N   0  0  0  0  0  0  0  0  0  0  0  0
    6.1757   -9.3387   14.8169 O   0  0  0  0  0  0  0  0  0  0  0  0
    9.5003   -5.4502   16.8482 C   0  0  0  0  0  0  0  0  0  0  0  0
   -1.2761  -10.8223   15.6990 N   0  0  0  0  0  0  0  0  0  0  0  0
    5.9525   -9.0987   17.4039 C   0  0  0  0  0  0  0  0  0  0  0  0
   -0.8976  -11.3016   13.3243 C   0  0  0  0  0  0  0  0  0  0  0  0
    3.2872   -8.7046   15.8401 C   0  0  0  0  0  0  0  0  0  0  0  0
    3.6834   -7.5487   17.2007 C   0  0  0  0  0  0  0  0  0  0  0  0
    7.4512   -8.6919   15.2055 C   0  0  0  0  0  0  0  0  0  0  0  0
   -1.4866  -11.4538   14.5901 C   0  0  0  0  0  0  0  0  0  0  0  0
    2.5021   -8.5607   15.8754 C   0  0  0  0  0  0  0  0  0  0  0  0
    9.8238   -4.7538   15.8476 C   0  0  0  0  0  0  0  0  0  0  0  0
    5.0503   -8.4489   17.4271 C   0  0  0  0  0  0  0  0  0  0  0  0
    8.3806   -6.8418   17.8257 C   0  0  0  0  0  0  0  0  0  0  0  0
    8.2571   -7.5890   17.8317 C   0  0  0  0  0  0  0  0  0  0  0  0
   10.9019   -3.1611   19.4162 N   0  0  0  0  0  0  0  0  0  0  0  0
    0.3951   -9.8191   14.4103 C   0  0  0  0  0  0  0  0  0  0  0  0
    8.3187   -7.6533   15.0471 C   0  0  0  0  0  0  0  0  0  0  0  0
   10.6200   -3.7554   18.2261 C   0  0  0  0  0  0  0  0  0  0  0  0
    2.8387   -9.1718   17.3069 C   0  0  0  0  0  0  0  0  0  0  0  0
    9.9070   -5.0120   18.1550 C   0  0  0  0  0  0  0  0  0  0  0  0
    5.9659   -8.4401   17.7755 C   0  0  0  0  0  0  0  0  0  0  0  0
    9.9687   -5.2763   19.5018 C   0  0  0  0  0  0  0  0  0  0  0  0
   10.9933   -3.2662   17.0013 C   0  0  0  0  0  0  0  0  0  0  0  0
    8.0195   -7.6009   15.9183 C   0  0  0  0  0  0  0  0  0  0  0  0
    0.7878   -7.6133   16.9991 C   0  0  0  0  0  0  0  0  0  0  0  0
    0.0642  -10.4850   13.3709 C   0  0  0  0  0  0  0  0  0  0  0  0
  1 18  4  0
  2  8  4  0
  2 30  4  0
  3 19  4  0
  3 31  4  0
  4 20  1  0
  5  7  1  0
  7 11  4  0
  7 24  4  0
  8 23  4  0
 10 19  4  0
 10 28  4  0
 11 17  4  0
 13 17  4  0
 13 34  4  0
 16 25  1  0
 21 22  1  0
 23 26  4  0
 24 34  4  0
 25 32  1  0
 26 28  4  0
 26 31  4  0
 28 30  4  0
M  END
$$$$

 Created by Python create_sdf_string function

 34 82  0  0  0  0  0  0  0  0999 V2000
    2.3892   -8.9294   15.2757 F   0  0  0  0  0  0  0  0  0  0  0  0
   10.1360   -4.9189   20.4047 C   0  0  0  0  0  0  0  0  0  0  0  0
    4.9673   -7.1928   17.0250 I   0  0  0  0  0  0  0  0  0  0  0  0
   -0.7902   -9.1531   16.9710 C   0  0  0  0  0  0  0  0  0  0  0  0
    6.5341   -6.9260   19.6488 F   0  0  0  0  0  0  0  0  0  0  0  0
    0.1010   -9.8461   15.7107 O   0  0  0  0  0  0  0  0  0  0  0  0
    6.9351  -10.2865   15.1224 N   0  0  0  0  0  0  0  0  0  0  0  0
   10.9314   -5.2069   16.5350 Cl  0  0  0  0  0  0  0  0  0  0  0  0
   -0.1658  -11.2781   13.8837 C   0  0  0  0  0  0  0  0  0  0  0  0
    8.5661   -7.9058   13.6397 C   0  0  0  0  0  0  0  0  0  0  0  0
   -1.6697  -11.3764   14.2957 C   0  0  0  0  0  0  0  0  0  0  0  0
    2.8664   -8.7173   15.0456 O   0  0  0  0  0  0  0  0  0  0  0  0
    5.2221   -8.2845   17.6095 C   0  0  0  0  0  0  0  0  0  0  0  0
    8.5960   -7.0457   18.0595 S   0  0  0  0  0  0  0  0  0  0  0  0
   11.4021   -3.2191   19.3322 N   0  0  0  0  0  0  0  0  0  0  0  0
    0.4097   -9.6606   14.3131 C   0  0  0  0  0  0  0  0  0  0  0  0
    8.2947   -7.7640   15.4310 C   0  0  0  0  0  0  0  0  0  0  0  0
    9.9254   -3.7425   18.3142 C   0  0  0  0  0  0  0  0  0  0  0  0
    9.4396   -5.0340   18.1133 C   0  0  0  0  0  0  0  0  0  0  0  0
   10.1400   -3.7528   19.3883 F   0  0  0  0  0  0  0  0  0  0  0  0
   10.9911   -2.6653   17.4017 O   0  0  0  0  0  0  0  0  0  0  0  0
    7.9202   -7.1099   15.6737 C   0  0  0  0  0  0  0  0  0  0  0  0
    0.0326  -10.7732   13.5190 C   0  0  0  0  0  0  0  0  0  0  0  0
    9.6012   -5.1100   15.9689 He  0  0  0  0  0  0  0  0  0  0  0  0
   10.8520   -3.5862   21.2341 He  0  0  0  0  0  0  0  0  0  0  0  0
   -1.2045  -10.8255   16.1460 He  0  0  0  0  0  0  0  0  0  0  0  0
    4.5950   -8.3781   16.6344 He  0  0  0  0  0  0  0  0  0  0  0  0
    4.1274   -8.5588   15.6074 He  0  0  0  0  0  0  0  0  0  0  0  0
    2.5063   -6.8396   17.9443 He  0  0  0  0  0  0  0  0  0  0  0  0
    9.7972   -4.6469   15.6640 He  0  0  0  0  0  0  0  0  0  0  0  0
    7.7493   -8.3987   17.8646 He  0  0  0  0  0  0  0  0  0  0  0  0
    2.9184   -9.3089   17.3587 He  0  0  0  0  0  0  0  0  0  0  0  0
    5.9798   -9.0463   16.9766 He  0  0  0  0  0  0  0  0  0  0  0  0
    1.5916   -6.1897   18.3632 He  0  0  0  0  0  0  0  0  0  0  0  0
  1  3  3  0
  1  5  2  0
  1  9  1  0
  1 10  1  0
  1 11  3  0
  1 14  4  0
  1 18  1  0
  1 19  3  0
  2  3  4  0
  2 10  3  0
  2 11  4  0
  2 20  4  0
  3  5  3  0
  3  7  2  0
  3  8  2  0
  3  9  1  0
  3 10  3  0
  3 11  3  0
  3 13  3  0
  3 15  2  0
  3 18  2  0
  3 19  4  0
  3 21  2  0
  3 22  2  0
  4  6  1  0
  4  7  2  0
  4  8  1  0
  4 13  3  0
  4 16  4  0
  4 20  3  0
  5  7  1  0
  5  9  1  0
  5 17  2  0
  5 19  4  0
  5 20  3  0
  5 21  1  0
  5 22  3  0
  6  8  4  0
  6 14  2  0
  6 20  2  0
  6 22  3  0
  7  9  1  0
  7 10  4  0
  7 13  1  0
  7 14  2  0
  7 18  2  0
  7 19  2  0
  7 23  2  0
  8  9  4  0
  8 12  4  0
  8 15  4  0
  8 17  3  0
  8 22  4  0
  8 23  1  0
  9 11  3  0
  9 16  1  0
  9 20  1  0
  9 23  4  0
 10 11  2  0
 10 13  4  0
 10 17  2  0
 10 19  3  0
 10 23  2  0
 11 22  2  0
 11 23  1  0
 12 13  2  0
 12 14  2  0
 12 15  3  0
 12 18  1  0
 12 21  3  0
 12 22  4  0
 14 20  4  0
 14 21  2  0
 15 18  1  0
 15 23  4  0
 16 19  3  0
 16 23  4  0
 17 22  3  0
 18 19  4  0
 18 21  4  0
 19 22  4  0
 20 21  4  0
M  END
$$$$

 Created by Python create_sdf_string function

 34 28  0  0  0  0  0  0  0  0999 V2000
    2.0796   -8.8303   15.3814 C   0  0  0  0  0  0  0  0  0  0  0  0
   10.1210   -4.8272   20.6784 C   0  0  0  0  0  0  0  0  0  0  0  0
    9.3916   -5.0204   16.2698 C   0  0  0  0  0  0  0  0  0  0  0  0
    4.9178   -7.8256   17.0560 C   0  0  0  0  0  0  0  0  0  0  0  0
   -0.2577   -9.0719   16.9190 C   0  0  0  0  0  0  0  0  0  0  0  0
    6.3286   -7.4250   18.6866 O   0  0  0  0  0  0  0  0  0  0  0  0
   -0.2389   -9.8874   15.8279 C   0  0  0  0  0  0  0  0  0  0  0  0
   10.8681   -3.7216   20.7967 C   0  0  0  0  0  0  0  0  0  0  0  0
    6.7685   -9.1214   15.4172 C   0  0  0  0  0  0  0  0  0  0  0  0
    9.9726   -4.4029   16.5216 C   0  0  0  0  0  0  0  0  0  0  0  0
   -1.2419  -10.7744   15.7641 C   0  0  0  0  0  0  0  0  0  0  0  0
    4.2753   -8.3370   16.7429 C   0  0  0  0  0  0  0  0  0  0  0  0
   -0.7004  -11.2596   13.5973 C   0  0  0  0  0  0  0  0  0  0  0  0
    3.9623   -8.7503   15.9265 C   0  0  0  0  0  0  0  0  0  0  0  0
    2.2233   -7.2554   16.7480 C   0  0  0  0  0  0  0  0  0  0  0  0
    8.2422   -8.4196   14.8370 C   0  0  0  0  0  0  0  0  0  0  0  0
   -1.4549  -11.4375   14.6546 C   0  0  0  0  0  0  0  0  0  0  0  0
    2.5167   -8.7464   15.3431 C   0  0  0  0  0  0  0  0  0  0  0  0
    9.8513   -4.2370   16.1233 C   0  0  0  0  0  0  0  0  0  0  0  0
    5.3602   -8.1983   17.6424 C   0  0  0  0  0  0  0  0  0  0  0  0
    7.6855   -7.8816   17.4294 C   0  0  0  0  0  0  0  0  0  0  0  0
    8.5251   -7.0963   18.0068 S   0  0  0  0  0  0  0  0  0  0  0  0
   11.1263   -3.0787   19.5405 N   0  0  0  0  0  0  0  0  0  0  0  0
    0.6619   -9.8655   14.6817 C   0  0  0  0  0  0  0  0  0  0  0  0
    8.3527   -7.8123   15.3322 C   0  0  0  0  0  0  0  0  0  0  0  0
   10.5555   -3.7959   18.3921 C   0  0  0  0  0  0  0  0  0  0  0  0
    2.6755   -9.1442   17.4512 C   0  0  0  0  0  0  0  0  0  0  0  0
    9.7132   -5.0413   18.3848 C   0  0  0  0  0  0  0  0  0  0  0  0
    6.5120   -8.6228   16.5527 C   0  0  0  0  0  0  0  0  0  0  0  0
    9.7827   -5.1873   19.6092 C   0  0  0  0  0  0  0  0  0  0  0  0
   10.8800   -3.2546   17.1645 C   0  0  0  0  0  0  0  0  0  0  0  0
    8.2975   -7.2245   16.2467 C   0  0  0  0  0  0  0  0  0  0  0  0
    1.6849   -7.1368   16.8677 C   0  0  0  0  0  0  0  0  0  0  0  0
    0.3552  -10.5607   13.5432 C   0  0  0  0  0  0  0  0  0  0  0  0
  1 18  1  0
  1 24  1  0
  2  8  4  0
  2 30  4  0
  3 10  4  0
  3 19  4  0
  4 12  4  0
  5  7  1  0
  7 11  4  0
  7 24  4  0
  8 23  4  0
  9 16  4  0
  9 29  4  0
 10 19  4  0
 11 17  4  0
 12 20  4  0
 13 17  4  0
 13 34  4  0
 15 33  4  0
 16 25  4  0
 19 31  4  0
 21 22  1  0
 23 26  4  0
 24 34  4  0
 25 32  4  0
 26 28  4  0
 26 31  4  0
 28 30  4  0
M  END
$$$$

 Created by Python create_sdf_string function

 34 94  0  0  0  0  0  0  0  0999 V2000
    3.2613   -9.5687   15.1260 C   0  0  0  0  0  0  0  0  0  0  0  0
   10.4300   -4.2200   20.7972 Se  0  0  0  0  0  0  0  0  0  0  0  0
    8.8809   -5.6465   15.6956 O   0  0  0  0  0  0  0  0  0  0  0  0
    6.1502   -7.5949   17.3033 Se  0  0  0  0  0  0  0  0  0  0  0  0
    0.1312   -9.1737   17.0353 S   0  0  0  0  0  0  0  0  0  0  0  0
    0.2825   -9.6573   15.7984 C   0  0  0  0  0  0  0  0  0  0  0  0
   11.4823   -3.6489   21.0980 C   0  0  0  0  0  0  0  0  0  0  0  0
    8.8504   -4.6350   16.5326 P   0  0  0  0  0  0  0  0  0  0  0  0
   -1.3620  -10.8810   15.5950 C   0  0  0  0  0  0  0  0  0  0  0  0
    4.3137   -7.6467   16.3904 F   0  0  0  0  0  0  0  0  0  0  0  0
   -0.4977  -11.2189   13.7216 F   0  0  0  0  0  0  0  0  0  0  0  0
    4.6364   -9.4912   16.2031 S   0  0  0  0  0  0  0  0  0  0  0  0
    7.8409   -9.1090   15.1145 I   0  0  0  0  0  0  0  0  0  0  0  0
   -1.1095  -11.7254   14.3148 C   0  0  0  0  0  0  0  0  0  0  0  0
   10.2068   -4.3345   16.1609 C   0  0  0  0  0  0  0  0  0  0  0  0
    5.2391   -8.2202   17.5857 C   0  0  0  0  0  0  0  0  0  0  0  0
    7.4394   -7.6908   16.3970 O   0  0  0  0  0  0  0  0  0  0  0  0
    7.9922   -7.4432   18.3162 S   0  0  0  0  0  0  0  0  0  0  0  0
   10.9780   -3.3111   19.3065 N   0  0  0  0  0  0  0  0  0  0  0  0
    7.7586   -8.3576   15.3766 C   0  0  0  0  0  0  0  0  0  0  0  0
   10.5800   -4.5196   18.4536 C   0  0  0  0  0  0  0  0  0  0  0  0
    9.9752   -5.1776   18.5627 P   0  0  0  0  0  0  0  0  0  0  0  0
   10.7800   -6.6623   17.3868 F   0  0  0  0  0  0  0  0  0  0  0  0
   11.2316   -3.7913   17.4902 C   0  0  0  0  0  0  0  0  0  0  0  0
    7.7863   -8.1579   15.8047 O   0  0  0  0  0  0  0  0  0  0  0  0
    0.3641  -10.7135   13.8261 C   0  0  0  0  0  0  0  0  0  0  0  0
    7.0002   -7.7189   18.6048 He  0  0  0  0  0  0  0  0  0  0  0  0
    6.8757   -9.9355   14.7754 He  0  0  0  0  0  0  0  0  0  0  0  0
    2.9951   -7.6508   16.7790 He  0  0  0  0  0  0  0  0  0  0  0  0
    1.8130   -9.6031   16.0408 He  0  0  0  0  0  0  0  0  0  0  0  0
   -0.2091   -9.5799   14.2561 He  0  0  0  0  0  0  0  0  0  0  0  0
    3.1331   -9.4826   17.3048 He  0  0  0  0  0  0  0  0  0  0  0  0
    5.5287  -10.0093   16.9672 He  0  0  0  0  0  0  0  0  0  0  0  0
    1.8824   -7.7442   16.3406 He  0  0  0  0  0  0  0  0  0  0  0  0
  1  4  2  0
  1  7  3  0
  1  9  2  0
  1 11  1  0
  1 17  4  0
  1 19  4  0
  1 21  1  0
  1 25  3  0
  1 26  2  0
  2 10  3  0
  3  4  3  0
  3  5  4  0
  3  7  1  0
  3  8  4  0
  3  9  1  0
  3 12  4  0
  3 14  2  0
  3 16  1  0
  3 18  3  0
  3 22  1  0
  3 26  1  0
  4 10  4  0
  4 11  3  0
  4 12  4  0
  4 17  3  0
  4 19  3  0
  4 24  4  0
  5 10  4  0
  5 13  1  0
  5 20  1  0
  5 26  2  0
  6  8  4  0
  6  9  4  0
  6 11  1  0
  6 25  2  0
  7  8  2  0
  7 10  4  0
  7 12  3  0
  7 17  3  0
  7 19  4  0
  7 25  2  0
  8  9  1  0
  8 13  3  0
  8 15  2  0
  8 19  1  0
  8 20  4  0
  8 22  2  0
  8 24  3  0
  8 26  2  0
  9 12  4  0
  9 13  3  0
  9 14  4  0
  9 19  3  0
  9 24  1  0
  9 25  4  0
 10 11  1  0
 10 12  1  0
 10 14  3  0
 10 16  1  0
 10 23  4  0
 10 25  4  0
 10 26  3  0
 11 14  4  0
 11 17  4  0
 11 24  2  0
 11 26  4  0
 12 15  4  0
 12 18  2  0
 12 23  4  0
 12 24  1  0
 12 25  4  0
 13 15  3  0
 13 16  4  0
 13 21  2  0
 13 26  3  0
 14 16  4  0
 15 17  3  0
 15 21  4  0
 15 23  3  0
 15 24  4  0
 16 22  4  0
 16 23  4  0
 16 25  4  0
 17 19  4  0
 17 21  3  0
 17 22  2  0
 17 23  4  0
 20 22  4  0
 20 23  2  0
 20 25  4  0
 21 22  4  0
 21 24  4  0
 22 23  4  0
 23 25  2  0
M  END
$$$$

 Created by Python create_sdf_string function

 34 27  0  0  0  0  0  0  0  0999 V2000
    3.2402   -9.1288   15.4990 C   0  0  0  0  0  0  0  0  0  0  0  0
   10.4654   -4.5338   20.6945 C   0  0  0  0  0  0  0  0  0  0  0  0
    8.7575   -5.5465   16.1948 C   0  0  0  0  0  0  0  0  0  0  0  0
    6.4902   -7.8142   17.2535 C   0  0  0  0  0  0  0  0  0  0  0  0
    0.1466   -9.1402   16.9790 C   0  0  0  0  0  0  0  0  0  0  0  0
    6.9965   -7.6792   17.9422 C   0  0  0  0  0  0  0  0  0  0  0  0
   -0.0705   -9.9618   15.6461 C   0  0  0  0  0  0  0  0  0  0  0  0
   11.1221   -3.4753   20.7196 C   0  0  0  0  0  0  0  0  0  0  0  0
    6.6026   -9.6759   15.2230 C   0  0  0  0  0  0  0  0  0  0  0  0
    9.3019   -5.1454   16.5966 C   0  0  0  0  0  0  0  0  0  0  0  0
   -1.1121  -10.9090   15.6315 C   0  0  0  0  0  0  0  0  0  0  0  0
    4.3379   -8.0518   16.7103 C   0  0  0  0  0  0  0  0  0  0  0  0
   -0.5945  -11.3613   13.5218 C   0  0  0  0  0  0  0  0  0  0  0  0
    4.6492   -9.2993   16.2782 C   0  0  0  0  0  0  0  0  0  0  0  0
    2.9696   -7.6851   16.5736 C   0  0  0  0  0  0  0  0  0  0  0  0
    7.6346   -8.7901   15.2758 C   0  0  0  0  0  0  0  0  0  0  0  0
   -1.2971  -11.6161   14.5705 C   0  0  0  0  0  0  0  0  0  0  0  0
    1.7902   -8.8971   16.2257 C   0  0  0  0  0  0  0  0  0  0  0  0
   10.2420   -4.0990   16.3525 C   0  0  0  0  0  0  0  0  0  0  0  0
    5.3264   -7.9331   17.7540 C   0  0  0  0  0  0  0  0  0  0  0  0
    7.6441   -7.2589   16.5032 C   0  0  0  0  0  0  0  0  0  0  0  0
    8.2690   -7.3992   18.3200 C   0  0  0  0  0  0  0  0  0  0  0  0
   11.1186   -3.6098   19.7499 N   0  0  0  0  0  0  0  0  0  0  0  0
    0.6264   -9.7820   14.5533 C   0  0  0  0  0  0  0  0  0  0  0  0
    7.9256   -8.5011   15.2753 C   0  0  0  0  0  0  0  0  0  0  0  0
   10.6777   -4.2300   18.6414 C   0  0  0  0  0  0  0  0  0  0  0  0
    2.9999   -9.6560   17.4009 C   0  0  0  0  0  0  0  0  0  0  0  0
   10.0248   -5.3013   18.8005 C   0  0  0  0  0  0  0  0  0  0  0  0
    5.5165   -9.9730   16.6820 C   0  0  0  0  0  0  0  0  0  0  0  0
    9.4421   -5.8590   17.9630 C   0  0  0  0  0  0  0  0  0  0  0  0
   10.8950   -3.6719   17.3860 C   0  0  0  0  0  0  0  0  0  0  0  0
    7.8332   -7.8053   15.9383 C   0  0  0  0  0  0  0  0  0  0  0  0
    1.9917   -8.1284   16.4225 C   0  0  0  0  0  0  0  0  0  0  0  0
    0.3267  -10.4331   13.4615 C   0  0  0  0  0  0  0  0  0  0  0  0
  2  8  4  0
  2 23  4  0
  3 10  4  0
  4  6  1  0
  5  7  1  0
  6 20  1  0
  7 11  4  0
  7 24  4  0
  8 23  4  0
 10 19  4  0
 10 30  4  0
 11 17  4  0
 12 14  1  0
 12 20  1  0
 13 17  4  0
 13 34  4  0
 14 29  1  0
 15 33  1  0
 16 25  1  0
 18 33  1  0
 19 31  4  0
 23 26  4  0
 24 34  4  0
 25 32  4  0
 26 28  4  0
 26 31  4  0
 28 30  4  0
M  END
$$$$

 Created by Python create_sdf_string function

 34 90  0  0  0  0  0  0  0  0999 V2000
   10.4110   -3.6607   20.9677 C   0  0  0  0  0  0  0  0  0  0  0  0
    8.6445   -5.4023   15.9643 Cl  0  0  0  0  0  0  0  0  0  0  0  0
    0.0428   -9.5447   16.7567 C   0  0  0  0  0  0  0  0  0  0  0  0
    0.1199  -10.0240   16.0441 C   0  0  0  0  0  0  0  0  0  0  0  0
   11.1897   -3.9546   20.6811 C   0  0  0  0  0  0  0  0  0  0  0  0
   -1.1551  -11.0423   15.6914 C   0  0  0  0  0  0  0  0  0  0  0  0
    2.5643   -7.2776   15.9379 N   0  0  0  0  0  0  0  0  0  0  0  0
   -0.5957  -11.5020   13.4952 C   0  0  0  0  0  0  0  0  0  0  0  0
    5.3956   -8.8724   16.5514 C   0  0  0  0  0  0  0  0  0  0  0  0
    4.0673   -6.2893   15.9636 C   0  0  0  0  0  0  0  0  0  0  0  0
    6.4705   -9.4840   15.1081 I   0  0  0  0  0  0  0  0  0  0  0  0
   -1.4292  -11.3411   14.3099 C   0  0  0  0  0  0  0  0  0  0  0  0
    2.0790   -7.2510   16.6749 F   0  0  0  0  0  0  0  0  0  0  0  0
   10.1711   -3.9495   16.2867 C   0  0  0  0  0  0  0  0  0  0  0  0
    5.4780   -7.4139   18.3460 C   0  0  0  0  0  0  0  0  0  0  0  0
    7.5495   -7.3498   16.2778 O   0  0  0  0  0  0  0  0  0  0  0  0
    7.8947   -7.0393   18.6504 C   0  0  0  0  0  0  0  0  0  0  0  0
   11.5495   -2.9921   19.4850 N   0  0  0  0  0  0  0  0  0  0  0  0
    0.6195  -10.0418   14.0626 C   0  0  0  0  0  0  0  0  0  0  0  0
    7.8224   -9.0916   15.6453 C   0  0  0  0  0  0  0  0  0  0  0  0
   10.6830   -4.3031   18.6227 C   0  0  0  0  0  0  0  0  0  0  0  0
    3.1737   -9.8012   17.4709 C   0  0  0  0  0  0  0  0  0  0  0  0
    9.9253   -5.4002   18.7902 C   0  0  0  0  0  0  0  0  0  0  0  0
    6.6604  -10.7649   16.9608 N   0  0  0  0  0  0  0  0  0  0  0  0
    9.5363   -6.3478   17.3993 C   0  0  0  0  0  0  0  0  0  0  0  0
   10.6452   -4.0653   17.2636 C   0  0  0  0  0  0  0  0  0  0  0  0
    9.5694   -7.2221   15.1710 C   0  0  0  0  0  0  0  0  0  0  0  0
    5.0113   -7.7051   16.9207 He  0  0  0  0  0  0  0  0  0  0  0  0
    6.3812   -7.6677   17.9811 He  0  0  0  0  0  0  0  0  0  0  0  0
    8.4896   -7.3290   18.4239 He  0  0  0  0  0  0  0  0  0  0  0  0
    5.9113   -9.4688   15.6727 He  0  0  0  0  0  0  0  0  0  0  0  0
    9.7485   -5.1761   17.2170 He  0  0  0  0  0  0  0  0  0  0  0  0
    2.2706   -8.8087   17.2447 He  0  0  0  0  0  0  0  0  0  0  0  0
    0.3334  -10.5142   14.0460 He  0  0  0  0  0  0  0  0  0  0  0  0
  1 16  3  0
  1 18  4  0
  1 22  1  0
  1 27  4  0
  2  4  1  0
  2  5  2  0
  2 12  3  0
  2 14  4  0
  2 16  1  0
  2 20  2  0
  2 21  4  0
  2 23  2  0
  2 25  1  0
  2 26  3  0
  3  4  1  0
  3 13  2  0
  3 26  3  0
  4  5  1  0
  4  7  4  0
  4  8  3  0
  4 17  4  0
  4 19  2  0
  4 24  4  0
  4 25  3  0
  5  8  3  0
  5 10  1  0
  5 18  4  0
  5 27  4  0
  6 10  3  0
  6 12  4  0
  6 14  3  0
  7  9  3  0
  7 10  4  0
  7 11  1  0
  7 12  3  0
  7 15  2  0
  7 16  3  0
  7 22  1  0
  7 23  1  0
  7 26  2  0
  8 10  1  0
  8 12  4  0
  8 18  4  0
  8 20  4  0
  8 21  4  0
  8 24  2  0
  8 25  3  0
  8 26  1  0
  9 10  4  0
  9 11  3  0
  9 12  1  0
  9 16  4  0
  9 19  2  0
  9 20  3  0
  9 24  2  0
  9 25  2  0
 10 14  4  0
 10 16  3  0
 10 27  4  0
 11 15  3  0
 11 16  2  0
 11 17  3  0
 11 19  4  0
 11 27  1  0
 12 21  2  0
 12 25  1  0
 13 18  2  0
 13 19  1  0
 13 27  2  0
 14 16  1  0
 14 26  4  0
 15 16  3  0
 15 23  2  0
 15 27  4  0
 16 22  4  0
 16 23  1  0
 16 27  2  0
 17 25  1  0
 18 21  1  0
 18 25  3  0
 20 23  2  0
 20 24  3  0
 20 25  2  0
 21 23  4  0
 21 26  4  0
 21 27  3  0
 22 24  3  0
 22 26  2  0
 23 25  4  0
 24 26  1  0
M  END
$$$$

 Created by Python create_sdf_string function

 34 29  0  0  0  0  0  0  0  0999 V2000
    5.0195   -8.0965   17.2044 C   0  0  0  0  0  0  0  0  0  0  0  0
   10.5951   -3.8554   21.0630 C   0  0  0  0  0  0  0  0  0  0  0  0
    8.8864   -5.3711   16.1069 C   0  0  0  0  0  0  0  0  0  0  0  0
    6.4437   -7.7295   17.8210 C   0  0  0  0  0  0  0  0  0  0  0  0
    0.4911   -9.5586   16.9197 C   0  0  0  0  0  0  0  0  0  0  0  0
    8.6354   -7.5176   17.8902 C   0  0  0  0  0  0  0  0  0  0  0  0
    0.0657  -10.1660   15.6792 C   0  0  0  0  0  0  0  0  0  0  0  0
   11.0144   -3.8622   20.7932 C   0  0  0  0  0  0  0  0  0  0  0  0
    5.9892   -9.3989   16.0551 C   0  0  0  0  0  0  0  0  0  0  0  0
    9.3793   -5.3543   16.9264 C   0  0  0  0  0  0  0  0  0  0  0  0
   -1.0926  -10.9824   15.6647 C   0  0  0  0  0  0  0  0  0  0  0  0
    2.4133   -7.6084   16.4129 C   0  0  0  0  0  0  0  0  0  0  0  0
   -0.7235  -11.3828   13.3990 C   0  0  0  0  0  0  0  0  0  0  0  0
    4.5461   -8.6633   16.7214 C   0  0  0  0  0  0  0  0  0  0  0  0
    3.6663   -7.2984   16.1626 C   0  0  0  0  0  0  0  0  0  0  0  0
    6.6076   -9.3529   15.4467 C   0  0  0  0  0  0  0  0  0  0  0  0
   -1.4135  -11.5561   14.5134 C   0  0  0  0  0  0  0  0  0  0  0  0
    1.9691   -7.2636   16.3979 C   0  0  0  0  0  0  0  0  0  0  0  0
   10.2498   -3.8915   16.3038 C   0  0  0  0  0  0  0  0  0  0  0  0
    5.6625   -7.5772   18.2620 C   0  0  0  0  0  0  0  0  0  0  0  0
    7.6584   -7.1295   16.4009 C   0  0  0  0  0  0  0  0  0  0  0  0
    8.0114   -7.0919   18.2681 C   0  0  0  0  0  0  0  0  0  0  0  0
   11.2570   -3.3528   19.6145 N   0  0  0  0  0  0  0  0  0  0  0  0
    0.7765   -9.9982   14.4298 C   0  0  0  0  0  0  0  0  0  0  0  0
    7.8338   -8.7837   15.5214 C   0  0  0  0  0  0  0  0  0  0  0  0
   10.6895   -4.1281   18.7034 C   0  0  0  0  0  0  0  0  0  0  0  0
    3.0295   -9.5398   17.1238 C   0  0  0  0  0  0  0  0  0  0  0  0
   10.0670   -5.2811   18.8840 C   0  0  0  0  0  0  0  0  0  0  0  0
    6.1814  -10.2987   16.6879 O   0  0  0  0  0  0  0  0  0  0  0  0
    9.3073   -5.9670   17.9262 C   0  0  0  0  0  0  0  0  0  0  0  0
   10.7427   -3.6609   17.3261 C   0  0  0  0  0  0  0  0  0  0  0  0
    8.4450   -7.6053   15.4086 C   0  0  0  0  0  0  0  0  0  0  0  0
    1.9486   -9.0477   16.9162 C   0  0  0  0  0  0  0  0  0  0  0  0
    0.3438  -10.6066   13.3836 C   0  0  0  0  0  0  0  0  0  0  0  0
  1 20  1  0
  2  8  4  0
  2 23  4  0
  3 10  4  0
  4 20  1  0
  5  7  1  0
  5 33  1  0
  7 11  4  0
  7 24  4  0
  8 23  4  0
  9 16  1  0
 11 17  4  0
 12 15  4  0
 12 18  4  0
 12 33  4  0
 13 17  4  0
 13 34  4  0
 14 15  4  0
 14 27  4  0
 16 25  1  0
 19 31  4  0
 22 30  1  0
 23 26  4  0
 24 34  4  0
 25 32  1  0
 26 28  4  0
 26 31  4  0
 27 33  4  0
 28 30  4  0
M  END
$$$$

 Created by Python create_sdf_string function

 34 41  0  0  0  0  0  0  0  0999 V2000
    5.2648   -7.8319   18.2861 N   0  0  0  0  0  0  0  0  0  0  0  0
   10.9077   -4.0061   20.8075 C   0  0  0  0  0  0  0  0  0  0  0  0
    7.0004   -7.3464   18.0587 C   0  0  0  0  0  0  0  0  0  0  0  0
    0.3000  -10.1421   16.5939 S   0  0  0  0  0  0  0  0  0  0  0  0
   -0.0472   -9.6280   15.7648 C   0  0  0  0  0  0  0  0  0  0  0  0
    5.7482   -9.2844   14.6687 O   0  0  0  0  0  0  0  0  0  0  0  0
   -1.6667  -11.5894   14.2681 S   0  0  0  0  0  0  0  0  0  0  0  0
    1.3464   -7.8289   16.5835 Br  0  0  0  0  0  0  0  0  0  0  0  0
   10.3673   -4.3252   16.1281 C   0  0  0  0  0  0  0  0  0  0  0  0
    5.7272   -7.6911   18.0682 C   0  0  0  0  0  0  0  0  0  0  0  0
    7.7779   -6.6836   15.6623 O   0  0  0  0  0  0  0  0  0  0  0  0
    7.9952   -6.5849   18.6306 C   0  0  0  0  0  0  0  0  0  0  0  0
    1.0989  -10.0125   14.5202 C   0  0  0  0  0  0  0  0  0  0  0  0
    7.6820   -8.7946   15.8175 C   0  0  0  0  0  0  0  0  0  0  0  0
   10.7501   -4.0637   18.4886 C   0  0  0  0  0  0  0  0  0  0  0  0
    9.9639   -4.7747   18.0646 C   0  0  0  0  0  0  0  0  0  0  0  0
    9.9264   -5.7111   18.0622 C   0  0  0  0  0  0  0  0  0  0  0  0
   11.3089   -3.5699   17.0222 C   0  0  0  0  0  0  0  0  0  0  0  0
    1.0069  -10.3573   13.6131 C   0  0  0  0  0  0  0  0  0  0  0  0
    9.2489   -5.6438   14.6573 He  0  0  0  0  0  0  0  0  0  0  0  0
    8.7300   -7.3043   17.2425 He  0  0  0  0  0  0  0  0  0  0  0  0
   10.5621   -3.8968   21.0495 He  0  0  0  0  0  0  0  0  0  0  0  0
    9.6636   -4.1238   16.7962 He  0  0  0  0  0  0  0  0  0  0  0  0
   -0.8640  -11.2304   15.6167 He  0  0  0  0  0  0  0  0  0  0  0  0
    2.0956   -7.8230   15.3479 He  0  0  0  0  0  0  0  0  0  0  0  0
   -1.2439  -11.5951   13.2573 He  0  0  0  0  0  0  0  0  0  0  0  0
    5.7616   -9.8203   17.6790 He  0  0  0  0  0  0  0  0  0  0  0  0
    4.1985   -6.1726   16.3143 He  0  0  0  0  0  0  0  0  0  0  0  0
    5.8871   -8.6451   14.2190 He  0  0  0  0  0  0  0  0  0  0  0  0
   11.0600   -3.5520   19.6981 He  0  0  0  0  0  0  0  0  0  0  0  0
    2.9030   -9.5564   16.4716 He  0  0  0  0  0  0  0  0  0  0  0  0
    5.2152   -9.1318   17.4947 He  0  0  0  0  0  0  0  0  0  0  0  0
    8.6441   -6.9962   14.1962 He  0  0  0  0  0  0  0  0  0  0  0  0
    2.3928   -8.4843   16.4360 He  0  0  0  0  0  0  0  0  0  0  0  0
  1  5  3  0
  1 10  1  0
  1 11  4  0
  1 13  1  0
  1 17  3  0
  2  6  2  0
  3  5  1  0
  3  7  2  0
  3 17  3  0
  3 18  3  0
  3 19  2  0
  4  5  1  0
  4  6  1  0
  4 16  4  0
  4 17  4  0
  5 11  3  0
  5 13  4  0
  6 12  2  0
  6 16  4  0
  6 17  1  0
  7 17  4  0
  8 11  2  0
  8 12  2  0
  8 13  3  0
  8 17  4  0
  9 11  2  0
  9 18  4  0
 10 12  1  0
 10 16  2  0
 10 17  1  0
 11 15  1  0
 11 18  3  0
 11 19  3  0
 12 17  3  0
 13 16  1  0
 13 17  2  0
 13 19  3  0
 15 17  3  0
 15 18  4  0
 16 19  2  0
 18 19  2  0
M  END
$$$$

 Created by Python create_sdf_string function

 34 29  0  0  0  0  0  0  0  0999 V2000
    5.4325   -7.9398   17.9094 N   0  0  0  0  0  0  0  0  0  0  0  0
   10.4770   -4.1467   20.7117 C   0  0  0  0  0  0  0  0  0  0  0  0
    9.0158   -5.5413   15.9176 C   0  0  0  0  0  0  0  0  0  0  0  0
    6.7249   -7.8637   17.8809 C   0  0  0  0  0  0  0  0  0  0  0  0
    0.3856   -9.7086   16.7692 C   0  0  0  0  0  0  0  0  0  0  0  0
    8.4776   -6.8023   17.2391 C   0  0  0  0  0  0  0  0  0  0  0  0
   -0.0021  -10.3070   15.6128 C   0  0  0  0  0  0  0  0  0  0  0  0
   10.6749   -4.1616   20.7848 N   0  0  0  0  0  0  0  0  0  0  0  0
    5.8065   -9.1992   15.2298 C   0  0  0  0  0  0  0  0  0  0  0  0
    9.4664   -5.2837   16.9483 C   0  0  0  0  0  0  0  0  0  0  0  0
   -1.1389  -11.1130   15.5179 C   0  0  0  0  0  0  0  0  0  0  0  0
    2.2973   -7.5830   15.8718 C   0  0  0  0  0  0  0  0  0  0  0  0
   -0.6157  -11.3249   13.2891 C   0  0  0  0  0  0  0  0  0  0  0  0
    5.3028   -9.4412   17.3756 C   0  0  0  0  0  0  0  0  0  0  0  0
    3.8055   -7.2409   16.0665 C   0  0  0  0  0  0  0  0  0  0  0  0
    6.0789   -8.8146   15.3933 C   0  0  0  0  0  0  0  0  0  0  0  0
   -1.4243  -11.5830   14.3322 C   0  0  0  0  0  0  0  0  0  0  0  0
    1.7902   -7.8904   16.2458 C   0  0  0  0  0  0  0  0  0  0  0  0
   10.5336   -3.9492   16.0811 C   0  0  0  0  0  0  0  0  0  0  0  0
    5.9861   -7.7142   18.2452 C   0  0  0  0  0  0  0  0  0  0  0  0
    7.8248   -7.0123   15.9311 C   0  0  0  0  0  0  0  0  0  0  0  0
    8.0184   -6.7447   18.4197 C   0  0  0  0  0  0  0  0  0  0  0  0
   11.1487   -3.4702   19.4715 N   0  0  0  0  0  0  0  0  0  0  0  0
    0.7369  -10.0646   14.4254 C   0  0  0  0  0  0  0  0  0  0  0  0
    7.5296   -8.6260   15.6147 C   0  0  0  0  0  0  0  0  0  0  0  0
   10.8433   -3.8750   18.4664 C   0  0  0  0  0  0  0  0  0  0  0  0
    3.0435   -9.4872   16.8065 C   0  0  0  0  0  0  0  0  0  0  0  0
    9.9868   -4.9244   18.6582 C   0  0  0  0  0  0  0  0  0  0  0  0
    4.4947   -9.0178   16.9698 C   0  0  0  0  0  0  0  0  0  0  0  0
    9.6301   -5.3084   18.5925 C   0  0  0  0  0  0  0  0  0  0  0  0
   11.0956   -3.5168   17.0490 C   0  0  0  0  0  0  0  0  0  0  0  0
    8.2425   -7.5024   15.1323 C   0  0  0  0  0  0  0  0  0  0  0  0
    2.3170   -8.8754   16.5302 C   0  0  0  0  0  0  0  0  0  0  0  0
    0.4798  -10.5570   13.3437 C   0  0  0  0  0  0  0  0  0  0  0  0
  1 20  1  0
  2  8  4  0
  2 23  4  0
  3 10  4  0
  4 20  1  0
  5  7  1  0
  5 33  1  0
  6 22  1  0
  7 11  4  0
  7 24  4  0
  8 23  4  0
  9 16  1  0
 10 19  4  0
 10 30  4  0
 11 17  4  0
 12 15  4  0
 12 18  4  0
 13 17  4  0
 13 34  4  0
 14 29  1  0
 19 31  4  0
 21 32  4  0
 23 26  4  0
 24 34  4  0
 26 28  4  0
 26 31  4  0
 27 29  4  0
 27 33  4  0
 28 30  4  0
M  END
$$$$

 Created by Python create_sdf_string function

 34 97  0  0  0  0  0  0  0  0999 V2000
   10.1049   -4.2410   20.1444 C   0  0  0  0  0  0  0  0  0  0  0  0
    0.6315   -9.8248   17.3832 C   0  0  0  0  0  0  0  0  0  0  0  0
    7.7621   -6.0815   17.0622 P   0  0  0  0  0  0  0  0  0  0  0  0
   -0.2106  -10.1085   16.0074 C   0  0  0  0  0  0  0  0  0  0  0  0
   10.5328   -4.5788   20.9315 N   0  0  0  0  0  0  0  0  0  0  0  0
    5.9088   -9.1841   16.0869 C   0  0  0  0  0  0  0  0  0  0  0  0
    8.0338   -4.9717   17.9561 P   0  0  0  0  0  0  0  0  0  0  0  0
   -1.1230  -11.1281   15.7123 C   0  0  0  0  0  0  0  0  0  0  0  0
    3.3552   -7.4980   15.3806 Cl  0  0  0  0  0  0  0  0  0  0  0  0
    4.3764  -10.0783   17.0957 O   0  0  0  0  0  0  0  0  0  0  0  0
    4.6391   -6.9850   16.8109 Cl  0  0  0  0  0  0  0  0  0  0  0  0
   -1.5692  -11.8699   14.2099 I   0  0  0  0  0  0  0  0  0  0  0  0
   10.4357   -4.6100   16.0274 C   0  0  0  0  0  0  0  0  0  0  0  0
    6.0972   -7.8487   18.0658 C   0  0  0  0  0  0  0  0  0  0  0  0
    8.6706   -7.1146   16.7654 O   0  0  0  0  0  0  0  0  0  0  0  0
   11.6438   -3.9140   19.4943 N   0  0  0  0  0  0  0  0  0  0  0  0
    0.4031  -10.1676   14.4134 C   0  0  0  0  0  0  0  0  0  0  0  0
    7.5482   -8.4884   15.5927 C   0  0  0  0  0  0  0  0  0  0  0  0
   10.5939   -4.2358   18.4424 C   0  0  0  0  0  0  0  0  0  0  0  0
    9.9791   -5.0092   18.5888 C   0  0  0  0  0  0  0  0  0  0  0  0
    4.0097   -9.9298   16.6508 Cl  0  0  0  0  0  0  0  0  0  0  0  0
    8.4988   -3.0009   19.7777 C   0  0  0  0  0  0  0  0  0  0  0  0
    6.5750   -8.1592   13.9386 O   0  0  0  0  0  0  0  0  0  0  0  0
    1.1587   -8.5269   16.0833 S   0  0  0  0  0  0  0  0  0  0  0  0
    1.3221  -10.8359   13.8724 C   0  0  0  0  0  0  0  0  0  0  0  0
    5.5496   -7.6748   16.0783 He  0  0  0  0  0  0  0  0  0  0  0  0
    9.7991   -4.7230   16.5826 He  0  0  0  0  0  0  0  0  0  0  0  0
    5.2829   -8.5975   17.8121 He  0  0  0  0  0  0  0  0  0  0  0  0
   -0.8645  -10.9149   13.2800 He  0  0  0  0  0  0  0  0  0  0  0  0
    2.5274   -8.4216   16.4093 He  0  0  0  0  0  0  0  0  0  0  0  0
    1.8541   -8.6492   17.2919 He  0  0  0  0  0  0  0  0  0  0  0  0
    8.5407   -6.4360   18.3895 He  0  0  0  0  0  0  0  0  0  0  0  0
    3.3157   -9.8501   16.7010 He  0  0  0  0  0  0  0  0  0  0  0  0
   10.7825   -3.7690   16.8795 He  0  0  0  0  0  0  0  0  0  0  0  0
  1  5  4  0
  1 10  3  0
  1 11  4  0
  1 15  3  0
  1 16  4  0
  1 20  2  0
  2  3  2  0
  2  4  4  0
  2  7  4  0
  2 11  2  0
  2 16  1  0
  2 20  2  0
  2 23  4  0
  2 24  3  0
  3  5  3  0
  3  6  1  0
  3  7  1  0
  3 11  2  0
  3 12  4  0
  3 13  2  0
  3 14  2  0
  3 15  1  0
  3 17  4  0
  3 18  3  0
  3 19  1  0
  3 21  4  0
  3 24  4  0
  3 25  3  0
  4  8  4  0
  4  9  1  0
  4 10  1  0
  4 15  1  0
  4 17  1  0
  4 18  3  0
  4 20  3  0
  4 23  1  0
  5  8  1  0
  5  9  3  0
  5 12  1  0
  5 15  1  0
  5 16  4  0
  5 19  1  0
  5 21  4  0
  5 23  2  0
  5 24  1  0
  6 10  1  0
  6 11  2  0
  6 24  1  0
  6 25  4  0
  7  8  2  0
  7 17  1  0
  8 12  4  0
  8 13  3  0
  8 15  4  0
  8 19  4  0
  8 24  4  0
  9 10  1  0
  9 19  3  0
  9 24  4  0
 10 14  1  0
 10 21  1  0
 10 23  2  0
 10 25  3  0
 11 12  2  0
 11 13  3  0
 11 16  4  0
 11 17  2  0
 11 23  1  0
 11 25  2  0
 12 17  4  0
 12 18  3  0
 14 15  3  0
 14 22  1  0
 15 16  1  0
 15 19  4  0
 15 20  2  0
 15 23  4  0
 16 18  2  0
 16 23  1  0
 16 25  4  0
 17 18  2  0
 17 22  4  0
 17 24  4  0
 17 25  4  0
 18 23  4  0
 19 20  4  0
 19 22  1  0
 19 24  3  0
 20 21  3  0
 20 22  2  0
 20 23  1  0
 20 24  2  0
 21 23  3  0
 21 24  3  0
 22 24  4  0
 23 25  1  0
 24 25  1  0
M  END
$$$$

 Created by Python create_sdf_string function

 34 27  0  0  0  0  0  0  0  0999 V2000
    5.9098   -7.5919   15.9727 C   0  0  0  0  0  0  0  0  0  0  0  0
   10.7617   -4.2146   20.7081 C   0  0  0  0  0  0  0  0  0  0  0  0
    9.2752   -4.8823   16.1415 C   0  0  0  0  0  0  0  0  0  0  0  0
    5.7435   -8.4735   17.6914 C   0  0  0  0  0  0  0  0  0  0  0  0
    0.3448   -9.9056   17.2269 C   0  0  0  0  0  0  0  0  0  0  0  0
    7.9383   -6.7638   16.9848 C   0  0  0  0  0  0  0  0  0  0  0  0
   -0.0670  -10.3271   15.9440 C   0  0  0  0  0  0  0  0  0  0  0  0
   10.5184   -4.3685   21.1267 N   0  0  0  0  0  0  0  0  0  0  0  0
    6.1008   -9.2373   16.1476 C   0  0  0  0  0  0  0  0  0  0  0  0
    8.9361   -5.6007   16.9810 C   0  0  0  0  0  0  0  0  0  0  0  0
   -1.1435  -11.1524   15.6597 C   0  0  0  0  0  0  0  0  0  0  0  0
    3.2892   -7.5955   15.7385 C   0  0  0  0  0  0  0  0  0  0  0  0
   -0.4477  -11.2200   13.4479 C   0  0  0  0  0  0  0  0  0  0  0  0
    4.2869   -9.7770   17.1503 C   0  0  0  0  0  0  0  0  0  0  0  0
    2.4068   -8.7596   16.4516 C   0  0  0  0  0  0  0  0  0  0  0  0
    4.8876   -7.4224   16.3880 C   0  0  0  0  0  0  0  0  0  0  0  0
   -1.3411  -11.5600   14.4682 C   0  0  0  0  0  0  0  0  0  0  0  0
    1.8559   -9.2699   17.0107 C   0  0  0  0  0  0  0  0  0  0  0  0
   10.3771   -4.0517   16.0038 C   0  0  0  0  0  0  0  0  0  0  0  0
    6.3016   -7.7732   18.1301 C   0  0  0  0  0  0  0  0  0  0  0  0
    8.1703   -7.5538   16.5665 C   0  0  0  0  0  0  0  0  0  0  0  0
    8.5047   -6.3586   18.4428 N   0  0  0  0  0  0  0  0  0  0  0  0
   11.1930   -3.6763   19.6052 N   0  0  0  0  0  0  0  0  0  0  0  0
    0.6790   -9.9223   14.9088 C   0  0  0  0  0  0  0  0  0  0  0  0
    7.5960   -8.4169   15.5590 C   0  0  0  0  0  0  0  0  0  0  0  0
   10.6263   -4.1460   18.3362 C   0  0  0  0  0  0  0  0  0  0  0  0
    3.1356   -9.7506   17.2719 C   0  0  0  0  0  0  0  0  0  0  0  0
    9.6968   -4.9296   18.6632 C   0  0  0  0  0  0  0  0  0  0  0  0
    4.3282   -9.6450   16.9874 C   0  0  0  0  0  0  0  0  0  0  0  0
    9.4945   -4.8498   19.7100 C   0  0  0  0  0  0  0  0  0  0  0  0
   11.0533   -3.7620   17.0742 C   0  0  0  0  0  0  0  0  0  0  0  0
    6.5217   -8.3115   15.0229 C   0  0  0  0  0  0  0  0  0  0  0  0
    1.6835   -8.9011   15.7125 C   0  0  0  0  0  0  0  0  0  0  0  0
    0.5884  -10.3985   13.6833 C   0  0  0  0  0  0  0  0  0  0  0  0
  1 16  1  0
  2  8  4  0
  2 23  4  0
  3 10  4  0
  3 19  4  0
  4 20  1  0
  5  7  4  0
  6 10  1  0
  6 21  1  0
  7 11  4  0
  7 24  4  0
  8 30  4  0
 11 17  4  0
 13 17  4  0
 13 34  4  0
 14 27  4  0
 14 29  1  0
 19 31  4  0
 21 25  1  0
 22 30  4  0
 23 26  4  0
 24 33  4  0
 24 34  4  0
 25 32  1  0
 26 28  4  0
 26 31  4  0
 28 30  4  0
M  END
$$$$

 Created by Python create_sdf_string function

 34 45  0  0  0  0  0  0  0  0999 V2000
    4.3347   -7.8005   16.5288 F   0  0  0  0  0  0  0  0  0  0  0  0
   10.7451   -4.8870   20.6754 C   0  0  0  0  0  0  0  0  0  0  0  0
    8.0687   -4.6459   15.8723 F   0  0  0  0  0  0  0  0  0  0  0  0
   -0.2800   -9.8518   16.2492 C   0  0  0  0  0  0  0  0  0  0  0  0
   10.5199   -4.4540   20.9887 N   0  0  0  0  0  0  0  0  0  0  0  0
   -1.2512  -11.0719   15.2633 C   0  0  0  0  0  0  0  0  0  0  0  0
    3.5748   -6.0865   14.6475 C   0  0  0  0  0  0  0  0  0  0  0  0
    5.4834   -9.4325   17.3003 B   0  0  0  0  0  0  0  0  0  0  0  0
    2.3521   -8.9876   16.5790 S   0  0  0  0  0  0  0  0  0  0  0  0
   -2.0841  -11.7240   14.6408 C   0  0  0  0  0  0  0  0  0  0  0  0
    1.7700   -9.1030   16.9197 C   0  0  0  0  0  0  0  0  0  0  0  0
    6.3255   -8.0419   18.3234 C   0  0  0  0  0  0  0  0  0  0  0  0
    8.7553   -6.8761   17.1311 S   0  0  0  0  0  0  0  0  0  0  0  0
    8.3746   -6.5145   18.5522 N   0  0  0  0  0  0  0  0  0  0  0  0
   10.9095   -3.5120   19.8860 F   0  0  0  0  0  0  0  0  0  0  0  0
    7.4659   -8.2992   15.5753 C   0  0  0  0  0  0  0  0  0  0  0  0
    2.3244   -9.5564   17.5469 C   0  0  0  0  0  0  0  0  0  0  0  0
    7.6506   -5.1377   20.0530 C   0  0  0  0  0  0  0  0  0  0  0  0
    0.0299  -10.1198   13.4766 C   0  0  0  0  0  0  0  0  0  0  0  0
    4.8460   -9.4040   17.0789 He  0  0  0  0  0  0  0  0  0  0  0  0
    0.5574   -9.9524   17.5014 He  0  0  0  0  0  0  0  0  0  0  0  0
    7.9746   -5.9072   17.9173 He  0  0  0  0  0  0  0  0  0  0  0  0
    7.1075   -9.3176   14.7759 He  0  0  0  0  0  0  0  0  0  0  0  0
    8.3756   -6.4341   16.7521 He  0  0  0  0  0  0  0  0  0  0  0  0
   -0.5767  -11.3059   13.3344 He  0  0  0  0  0  0  0  0  0  0  0  0
    4.6715   -5.9705   16.3838 He  0  0  0  0  0  0  0  0  0  0  0  0
    9.8886   -4.7043   16.5249 He  0  0  0  0  0  0  0  0  0  0  0  0
    0.7769  -10.1532   14.9341 He  0  0  0  0  0  0  0  0  0  0  0  0
   10.8060   -4.4165   18.6603 He  0  0  0  0  0  0  0  0  0  0  0  0
    9.8203   -4.6453   18.1363 He  0  0  0  0  0  0  0  0  0  0  0  0
    4.0774  -10.0281   16.4202 He  0  0  0  0  0  0  0  0  0  0  0  0
   11.1264   -3.6592   17.0111 He  0  0  0  0  0  0  0  0  0  0  0  0
    7.6317   -8.1226   15.3732 He  0  0  0  0  0  0  0  0  0  0  0  0
    1.1273   -7.1285   15.7965 He  0  0  0  0  0  0  0  0  0  0  0  0
  1  2  3  0
  1  7  1  0
  1  9  1  0
  1 10  1  0
  1 13  4  0
  1 15  2  0
  1 16  3  0
  1 19  2  0
  2  5  4  0
  2  8  2  0
  2 12  1  0
  2 15  4  0
  3  4  1  0
  3  5  1  0
  3  6  4  0
  3  7  1  0
  3 12  2  0
  3 13  1  0
  3 15  4  0
  3 18  4  0
  3 19  1  0
  4  6  4  0
  4  9  2  0
  4 13  3  0
  4 18  2  0
  4 19  2  0
  5 13  4  0
  6  8  2  0
  6 10  1  0
  7 14  1  0
  7 18  3  0
  8 11  2  0
  8 17  2  0
  8 19  3  0
  9 11  2  0
  9 16  4  0
  9 17  3  0
  9 19  1  0
 10 11  2  0
 10 13  4  0
 11 15  2  0
 13 16  4  0
 14 18  4  0
 15 18  4  0
 17 18  1  0
M  END
$$$$

 Created by Python create_sdf_string function

 34 26  0  0  0  0  0  0  0  0999 V2000
    3.8677   -7.8058   16.1879 C   0  0  0  0  0  0  0  0  0  0  0  0
   10.6426   -4.2865   20.8311 C   0  0  0  0  0  0  0  0  0  0  0  0
    8.8607   -5.0908   16.1164 C   0  0  0  0  0  0  0  0  0  0  0  0
    5.1211   -9.3257   17.2407 C   0  0  0  0  0  0  0  0  0  0  0  0
    0.3799  -10.1775   17.3283 N   0  0  0  0  0  0  0  0  0  0  0  0
    7.8097   -6.6305   17.5888 C   0  0  0  0  0  0  0  0  0  0  0  0
   -0.0861  -10.3704   15.9819 C   0  0  0  0  0  0  0  0  0  0  0  0
   10.1989   -4.8771   20.7331 N   0  0  0  0  0  0  0  0  0  0  0  0
    7.0391   -9.2119   15.1735 C   0  0  0  0  0  0  0  0  0  0  0  0
    8.1035   -6.6236   16.8241 C   0  0  0  0  0  0  0  0  0  0  0  0
   -1.1478  -11.0913   15.6860 C   0  0  0  0  0  0  0  0  0  0  0  0
    3.2778   -6.7984   15.3194 C   0  0  0  0  0  0  0  0  0  0  0  0
   -0.7490  -11.0751   13.5333 C   0  0  0  0  0  0  0  0  0  0  0  0
    5.3466   -9.4634   17.3269 C   0  0  0  0  0  0  0  0  0  0  0  0
    2.2198   -8.8452   16.3072 C   0  0  0  0  0  0  0  0  0  0  0  0
    4.6815   -6.9801   15.7907 C   0  0  0  0  0  0  0  0  0  0  0  0
   -1.5178  -11.4991   14.4991 C   0  0  0  0  0  0  0  0  0  0  0  0
    1.9603   -9.1992   16.7069 C   0  0  0  0  0  0  0  0  0  0  0  0
    9.8376   -4.3472   16.2289 C   0  0  0  0  0  0  0  0  0  0  0  0
    6.4155   -7.8447   18.0631 C   0  0  0  0  0  0  0  0  0  0  0  0
    8.5038   -7.2762   16.7454 C   0  0  0  0  0  0  0  0  0  0  0  0
    8.2561   -6.2738   18.4572 N   0  0  0  0  0  0  0  0  0  0  0  0
   11.1955   -3.6479   19.7427 N   0  0  0  0  0  0  0  0  0  0  0  0
    0.5744   -9.9141   14.9216 C   0  0  0  0  0  0  0  0  0  0  0  0
    7.5657   -8.3824   15.5903 C   0  0  0  0  0  0  0  0  0  0  0  0
   10.7954   -3.9445   18.4625 C   0  0  0  0  0  0  0  0  0  0  0  0
    2.3715   -9.8575   17.4752 C   0  0  0  0  0  0  0  0  0  0  0  0
    9.8847   -4.7519   18.5096 C   0  0  0  0  0  0  0  0  0  0  0  0
    4.1089   -9.3101   16.5847 C   0  0  0  0  0  0  0  0  0  0  0  0
    9.3298   -5.3407   19.2028 C   0  0  0  0  0  0  0  0  0  0  0  0
   10.8369   -3.7488   17.0559 C   0  0  0  0  0  0  0  0  0  0  0  0
    7.2232   -8.2543   16.0363 C   0  0  0  0  0  0  0  0  0  0  0  0
    1.7507   -7.5551   15.3202 C   0  0  0  0  0  0  0  0  0  0  0  0
    0.2519  -10.2741   13.6954 C   0  0  0  0  0  0  0  0  0  0  0  0
  1 12  1  0
  1 16  1  0
  2  8  4  0
  2 23  4  0
  3 19  4  0
  4 14  1  0
  5  7  1  0
  6 10  1  0
  6 20  1  0
  7 11  4  0
  7 24  4  0
  8 30  4  0
 11 17  4  0
 12 16  1  0
 12 33  4  0
 13 17  4  0
 13 34  4  0
 15 18  4  0
 19 31  4  0
 22 30  4  0
 23 26  4  0
 24 34  4  0
 25 32  1  0
 26 28  4  0
 26 31  4  0
 28 30  4  0
M  END
$$$$

 Created by Python create_sdf_string function

 34 98  0  0  0  0  0  0  0  0999 V2000
    4.9145   -8.7832   15.2004 C   0  0  0  0  0  0  0  0  0  0  0  0
   11.1753   -3.8555   20.7249 C   0  0  0  0  0  0  0  0  0  0  0  0
    9.3661   -5.9685   15.6096 C   0  0  0  0  0  0  0  0  0  0  0  0
    4.5058   -9.5297   16.7153 F   0  0  0  0  0  0  0  0  0  0  0  0
    0.2080  -10.4317   17.6979 N   0  0  0  0  0  0  0  0  0  0  0  0
    0.2451  -10.2914   16.7241 C   0  0  0  0  0  0  0  0  0  0  0  0
   10.0324   -5.2888   20.9157 N   0  0  0  0  0  0  0  0  0  0  0  0
    6.7066   -7.4372   16.6772 C   0  0  0  0  0  0  0  0  0  0  0  0
   -0.9799  -11.5422   15.4742 C   0  0  0  0  0  0  0  0  0  0  0  0
    3.7456   -7.1495   14.5055 S   0  0  0  0  0  0  0  0  0  0  0  0
   -0.4316  -11.3878   13.7424 C   0  0  0  0  0  0  0  0  0  0  0  0
    1.1533   -9.3992   16.7717 Se  0  0  0  0  0  0  0  0  0  0  0  0
   -1.6296  -11.3916   14.6132 O   0  0  0  0  0  0  0  0  0  0  0  0
    1.4197   -9.9426   16.9799 P   0  0  0  0  0  0  0  0  0  0  0  0
    9.8644   -4.3736   16.5304 C   0  0  0  0  0  0  0  0  0  0  0  0
    6.4120   -7.8205   18.4074 C   0  0  0  0  0  0  0  0  0  0  0  0
    8.1053   -6.0601   18.0956 N   0  0  0  0  0  0  0  0  0  0  0  0
   10.8712   -3.9207   19.7625 N   0  0  0  0  0  0  0  0  0  0  0  0
    7.4679   -8.3241   15.3949 C   0  0  0  0  0  0  0  0  0  0  0  0
   10.4566   -3.7356   19.0397 C   0  0  0  0  0  0  0  0  0  0  0  0
    2.6333   -9.5555   17.7954 C   0  0  0  0  0  0  0  0  0  0  0  0
   10.1969   -4.8603   18.3189 C   0  0  0  0  0  0  0  0  0  0  0  0
    5.1819   -9.1210   16.4951 C   0  0  0  0  0  0  0  0  0  0  0  0
    9.0447   -5.6283   19.8232 C   0  0  0  0  0  0  0  0  0  0  0  0
   11.2571   -4.5190   17.3687 C   0  0  0  0  0  0  0  0  0  0  0  0
    3.0747   -6.6795   16.0610 C   0  0  0  0  0  0  0  0  0  0  0  0
    0.4861  -10.1286   13.9927 S   0  0  0  0  0  0  0  0  0  0  0  0
    7.7404   -8.0545   17.7096 He  0  0  0  0  0  0  0  0  0  0  0  0
    6.9335   -9.7521   14.3895 He  0  0  0  0  0  0  0  0  0  0  0  0
    5.5354  -10.6018   16.9576 He  0  0  0  0  0  0  0  0  0  0  0  0
    6.0343   -7.4583   15.3342 He  0  0  0  0  0  0  0  0  0  0  0  0
    9.5652   -7.1715   17.9182 He  0  0  0  0  0  0  0  0  0  0  0  0
    0.5242   -9.5747   14.4608 He  0  0  0  0  0  0  0  0  0  0  0  0
    7.1601   -9.6004   16.0920 He  0  0  0  0  0  0  0  0  0  0  0  0
  1  4  1  0
  1  5  1  0
  1  8  1  0
  1 13  1  0
  1 17  3  0
  1 22  3  0
  2  7  4  0
  2 12  2  0
  2 13  4  0
  2 14  3  0
  2 18  4  0
  2 24  2  0
  2 26  4  0
  3  7  3  0
  3  9  1  0
  3 17  1  0
  3 22  3  0
  3 26  4  0
  3 27  3  0
  4  5  4  0
  4  9  1  0
  4 16  2  0
  4 18  4  0
  4 22  2  0
  4 23  3  0
  4 26  4  0
  4 27  2  0
  5  6  1  0
  5  9  3  0
  5 14  3  0
  5 18  3  0
  5 23  4  0
  5 26  2  0
  6  9  4  0
  6 12  2  0
  6 14  4  0
  6 21  4  0
  6 22  4  0
  6 25  1  0
  7 10  1  0
  7 11  4  0
  7 12  2  0
  7 24  2  0
  8  9  4  0
  8 11  1  0
  8 19  1  0
  8 20  4  0
  9 10  2  0
  9 13  4  0
  9 14  2  0
  9 22  4  0
  9 24  3  0
  9 25  1  0
 10 11  1  0
 10 12  1  0
 10 18  2  0
 10 21  4  0
 10 23  1  0
 10 26  4  0
 11 13  4  0
 11 17  4  0
 11 24  4  0
 11 27  4  0
 12 14  3  0
 12 15  1  0
 12 20  1  0
 12 24  4  0
 12 25  1  0
 12 27  4  0
 13 23  3  0
 13 25  4  0
 14 17  3  0
 14 26  3  0
 14 27  2  0
 15 16  4  0
 15 21  2  0
 15 24  2  0
 15 25  1  0
 16 17  3  0
 16 18  3  0
 16 24  2  0
 17 23  3  0
 18 20  4  0
 18 24  2  0
 18 27  3  0
 19 23  2  0
 20 22  3  0
 20 23  2  0
 20 24  4  0
 20 25  4  0
 22 23  3  0
 22 24  4  0
 22 26  4  0
 23 25  4  0
 23 26  4  0
 24 25  2  0
 24 27  4  0
 25 26  3  0
M  END
$$$$

 Created by Python create_sdf_string function

 34 26  0  0  0  0  0  0  0  0999 V2000
    4.9769   -8.2684   15.7045 C   0  0  0  0  0  0  0  0  0  0  0  0
   10.8011   -4.0323   20.8780 C   0  0  0  0  0  0  0  0  0  0  0  0
    9.0500   -5.4573   16.4643 C   0  0  0  0  0  0  0  0  0  0  0  0
    4.2131   -9.1578   16.7581 C   0  0  0  0  0  0  0  0  0  0  0  0
    0.3080  -10.5477   17.7153 N   0  0  0  0  0  0  0  0  0  0  0  0
    7.7627   -7.8967   17.7592 C   0  0  0  0  0  0  0  0  0  0  0  0
    0.1356  -10.5278   16.2415 C   0  0  0  0  0  0  0  0  0  0  0  0
   10.3300   -5.1739   20.8862 C   0  0  0  0  0  0  0  0  0  0  0  0
    6.7100   -9.8906   15.0845 O   0  0  0  0  0  0  0  0  0  0  0  0
    7.0206   -7.3499   16.4119 C   0  0  0  0  0  0  0  0  0  0  0  0
   -0.8856  -11.3423   15.8270 C   0  0  0  0  0  0  0  0  0  0  0  0
    3.5026   -7.3823   15.2535 C   0  0  0  0  0  0  0  0  0  0  0  0
   -0.5324  -11.0111   13.6128 C   0  0  0  0  0  0  0  0  0  0  0  0
    5.3416  -10.1619   17.3186 O   0  0  0  0  0  0  0  0  0  0  0  0
    1.8415   -9.1816   16.4816 C   0  0  0  0  0  0  0  0  0  0  0  0
    5.7004   -7.5265   15.3961 C   0  0  0  0  0  0  0  0  0  0  0  0
   -1.1963  -11.6139   14.5273 C   0  0  0  0  0  0  0  0  0  0  0  0
    1.7123   -9.6944   17.0453 C   0  0  0  0  0  0  0  0  0  0  0  0
   10.0491   -4.5252   16.3187 C   0  0  0  0  0  0  0  0  0  0  0  0
    6.4604   -7.8200   18.3070 C   0  0  0  0  0  0  0  0  0  0  0  0
    9.0801   -7.2421   17.9487 C   0  0  0  0  0  0  0  0  0  0  0  0
    8.4377   -6.2452   17.5822 N   0  0  0  0  0  0  0  0  0  0  0  0
   11.1097   -3.4426   19.7782 N   0  0  0  0  0  0  0  0  0  0  0  0
    0.7643   -9.9018   15.1775 C   0  0  0  0  0  0  0  0  0  0  0  0
    7.7091   -8.1370   15.5739 C   0  0  0  0  0  0  0  0  0  0  0  0
   10.7298   -3.9513   18.5800 C   0  0  0  0  0  0  0  0  0  0  0  0
    2.8424   -9.7588   17.4363 C   0  0  0  0  0  0  0  0  0  0  0  0
    9.9776   -5.1419   18.6745 C   0  0  0  0  0  0  0  0  0  0  0  0
    5.1770   -9.0898   16.5708 C   0  0  0  0  0  0  0  0  0  0  0  0
    9.9302   -5.5402   19.5857 C   0  0  0  0  0  0  0  0  0  0  0  0
   10.7592   -3.7935   17.2440 C   0  0  0  0  0  0  0  0  0  0  0  0
    6.7048   -9.2279   16.3974 C   0  0  0  0  0  0  0  0  0  0  0  0
    2.9314   -7.6579   15.8611 C   0  0  0  0  0  0  0  0  0  0  0  0
    0.4136  -10.1519   13.8216 C   0  0  0  0  0  0  0  0  0  0  0  0
  1 16  1  0
  2  8  4  0
  2 23  4  0
  3 19  4  0
  3 22  1  0
  5  7  1  0
  6 20  1  0
  6 21  1  0
  7 11  4  0
  7 24  4  0
  8 30  4  0
 10 25  1  0
 11 17  4  0
 12 33  4  0
 13 17  4  0
 13 34  4  0
 15 18  4  0
 18 27  4  0
 19 31  4  0
 21 22  1  0
 23 26  4  0
 24 34  4  0
 25 32  1  0
 26 28  4  0
 26 31  4  0
 28 30  4  0
M  END
$$$$

 Created by Python create_sdf_string function

 34 70  0  0  0  0  0  0  0  0999 V2000
   11.1372   -4.1292   20.6480 C   0  0  0  0  0  0  0  0  0  0  0  0
    7.1288   -6.0711   16.4856 Cl  0  0  0  0  0  0  0  0  0  0  0  0
    0.5686  -10.0237   17.7591 N   0  0  0  0  0  0  0  0  0  0  0  0
    7.4286   -7.8652   18.0596 C   0  0  0  0  0  0  0  0  0  0  0  0
   -0.0633  -10.3841   16.3603 N   0  0  0  0  0  0  0  0  0  0  0  0
    5.4863  -10.0475   15.2714 O   0  0  0  0  0  0  0  0  0  0  0  0
   -0.6560  -11.1395   16.3516 C   0  0  0  0  0  0  0  0  0  0  0  0
   -0.9133  -11.0491   13.7635 C   0  0  0  0  0  0  0  0  0  0  0  0
    5.7514  -11.5999   16.5911 C   0  0  0  0  0  0  0  0  0  0  0  0
    1.5404   -9.6501   15.0962 C   0  0  0  0  0  0  0  0  0  0  0  0
    5.0120   -7.8075   16.5629 Se  0  0  0  0  0  0  0  0  0  0  0  0
   -1.5455  -11.7961   14.9013 C   0  0  0  0  0  0  0  0  0  0  0  0
    9.9491   -4.6106   16.2588 C   0  0  0  0  0  0  0  0  0  0  0  0
    8.7753   -6.2469   17.7672 N   0  0  0  0  0  0  0  0  0  0  0  0
    0.8543   -9.6202   15.6109 C   0  0  0  0  0  0  0  0  0  0  0  0
    7.9214   -8.0381   15.1987 C   0  0  0  0  0  0  0  0  0  0  0  0
   10.1740   -3.8610   18.4500 C   0  0  0  0  0  0  0  0  0  0  0  0
    2.3606   -9.6329   17.4686 C   0  0  0  0  0  0  0  0  0  0  0  0
   10.1324   -5.0578   18.4817 C   0  0  0  0  0  0  0  0  0  0  0  0
   11.3621   -6.2861   19.7306 C   0  0  0  0  0  0  0  0  0  0  0  0
   10.5032   -4.0178   17.5297 C   0  0  0  0  0  0  0  0  0  0  0  0
    6.6737   -9.0044   16.9198 P   0  0  0  0  0  0  0  0  0  0  0  0
    3.3010   -8.3897   15.8102 C   0  0  0  0  0  0  0  0  0  0  0  0
    0.7890  -10.1987   13.8904 C   0  0  0  0  0  0  0  0  0  0  0  0
    4.5552   -7.2844   15.1795 He  0  0  0  0  0  0  0  0  0  0  0  0
    2.7969   -9.0561   16.0976 He  0  0  0  0  0  0  0  0  0  0  0  0
    9.9111   -5.0653   20.6509 He  0  0  0  0  0  0  0  0  0  0  0  0
    5.8237   -7.3601   16.1569 He  0  0  0  0  0  0  0  0  0  0  0  0
    2.7033   -7.9018   16.6049 He  0  0  0  0  0  0  0  0  0  0  0  0
    0.4035  -10.3731   17.2756 He  0  0  0  0  0  0  0  0  0  0  0  0
    6.5656   -8.0315   18.5431 He  0  0  0  0  0  0  0  0  0  0  0  0
    9.1174   -5.9181   18.2822 He  0  0  0  0  0  0  0  0  0  0  0  0
   11.3599   -3.2815   19.3547 He  0  0  0  0  0  0  0  0  0  0  0  0
    5.2609  -10.9649   16.9245 He  0  0  0  0  0  0  0  0  0  0  0  0
  1  5  4  0
  1  7  4  0
  1 11  3  0
  1 14  2  0
  1 16  1  0
  1 19  2  0
  2  3  1  0
  2  7  1  0
  2  8  4  0
  2 12  2  0
  2 13  4  0
  2 14  4  0
  2 23  4  0
  3  4  4  0
  3  5  1  0
  3  6  3  0
  3 11  1  0
  3 20  2  0
  3 23  4  0
  4  7  4  0
  4 16  2  0
  4 17  2  0
  4 18  4  0
  4 20  1  0
  4 23  3  0
  5  7  4  0
  5 11  1  0
  5 13  4  0
  5 15  4  0
  5 23  2  0
  5 24  3  0
  6  8  4  0
  6 13  1  0
  6 21  2  0
  7 10  2  0
  7 12  4  0
  8 11  2  0
  8 12  4  0
  8 15  3  0
  8 16  2  0
  9 12  1  0
  9 16  3  0
  9 22  1  0
 10 14  3  0
 10 20  1  0
 11 13  4  0
 11 14  3  0
 11 16  4  0
 11 18  3  0
 11 22  3  0
 11 23  4  0
 12 15  2  0
 12 21  4  0
 12 24  1  0
 13 14  2  0
 13 21  3  0
 13 23  1  0
 14 19  2  0
 14 23  2  0
 15 20  3  0
 15 24  4  0
 16 19  2  0
 17 19  4  0
 17 20  3  0
 17 21  4  0
 17 23  1  0
 18 20  4  0
 19 20  3  0
 21 22  3  0
 22 24  2  0
M  END
$$$$

 Created by Python create_sdf_string function

 34 28  0  0  0  0  0  0  0  0999 V2000
    4.6205   -7.2313   15.5568 C   0  0  0  0  0  0  0  0  0  0  0  0
   11.1994   -3.7838   20.5801 C   0  0  0  0  0  0  0  0  0  0  0  0
    8.1638   -5.8516   16.2306 C   0  0  0  0  0  0  0  0  0  0  0  0
    2.5842   -9.0685   16.1224 C   0  0  0  0  0  0  0  0  0  0  0  0
    0.4743  -10.2670   17.8427 N   0  0  0  0  0  0  0  0  0  0  0  0
    7.6112   -7.9016   17.6830 C   0  0  0  0  0  0  0  0  0  0  0  0
    0.0531  -10.5325   16.4639 C   0  0  0  0  0  0  0  0  0  0  0  0
   10.8143   -5.0763   20.8829 C   0  0  0  0  0  0  0  0  0  0  0  0
    5.8460  -10.2270   15.6141 O   0  0  0  0  0  0  0  0  0  0  0  0
    6.1470   -7.4623   16.0631 C   0  0  0  0  0  0  0  0  0  0  0  0
   -1.0281  -11.2992   16.1431 C   0  0  0  0  0  0  0  0  0  0  0  0
    2.8958   -7.8885   16.0095 C   0  0  0  0  0  0  0  0  0  0  0  0
   -0.7046  -11.0524   13.8343 C   0  0  0  0  0  0  0  0  0  0  0  0
    5.8729  -10.2984   16.7625 C   0  0  0  0  0  0  0  0  0  0  0  0
    2.1630   -8.6735   15.3730 C   0  0  0  0  0  0  0  0  0  0  0  0
    4.9508   -8.1598   16.3484 C   0  0  0  0  0  0  0  0  0  0  0  0
   -1.3562  -11.5809   14.8651 C   0  0  0  0  0  0  0  0  0  0  0  0
    1.2900   -9.9962   17.7747 C   0  0  0  0  0  0  0  0  0  0  0  0
    9.5126   -4.4452   16.1904 C   0  0  0  0  0  0  0  0  0  0  0  0
    6.6889   -7.9924   18.3457 C   0  0  0  0  0  0  0  0  0  0  0  0
    8.5950   -6.6377   17.7305 C   0  0  0  0  0  0  0  0  0  0  0  0
    9.0211   -5.9041   17.4469 N   0  0  0  0  0  0  0  0  0  0  0  0
   11.0654   -3.3028   19.3027 N   0  0  0  0  0  0  0  0  0  0  0  0
    0.7631   -9.9695   15.4437 C   0  0  0  0  0  0  0  0  0  0  0  0
    7.6995   -8.0031   15.6712 C   0  0  0  0  0  0  0  0  0  0  0  0
   10.5254   -4.0732   18.2987 C   0  0  0  0  0  0  0  0  0  0  0  0
    2.4970   -9.7992   17.4664 C   0  0  0  0  0  0  0  0  0  0  0  0
    9.9269   -5.2699   18.6199 C   0  0  0  0  0  0  0  0  0  0  0  0
    5.3526  -10.4898   17.2703 C   0  0  0  0  0  0  0  0  0  0  0  0
   10.1925   -5.7281   19.8648 C   0  0  0  0  0  0  0  0  0  0  0  0
   10.2833   -3.8115   16.9545 C   0  0  0  0  0  0  0  0  0  0  0  0
    6.7182   -9.0896   16.8505 C   0  0  0  0  0  0  0  0  0  0  0  0
    3.5244   -8.6940   16.3041 C   0  0  0  0  0  0  0  0  0  0  0  0
    0.3253  -10.1976   14.0682 C   0  0  0  0  0  0  0  0  0  0  0  0
  2  8  4  0
  2 23  4  0
  3 19  4  0
  3 22  4  0
  4 33  4  0
  5  7  4  0
  5 18  4  0
  6 20  1  0
  6 21  1  0
  7 11  4  0
  7 24  4  0
  8 30  4  0
 11 17  4  0
 12 15  1  0
 13 17  4  0
 13 34  4  0
 14 29  1  0
 14 32  1  0
 16 33  4  0
 18 27  4  0
 19 31  4  0
 21 22  4  0
 22 28  4  0
 23 26  4  0
 24 34  4  0
 26 28  4  0
 26 31  4  0
 28 30  4  0
M  END
$$$$

 Created by Python create_sdf_string function

 34 82  0  0  0  0  0  0  0  0999 V2000
    3.8931   -8.1233   16.7212 C   0  0  0  0  0  0  0  0  0  0  0  0
   10.6579   -3.5647   20.2458 P   0  0  0  0  0  0  0  0  0  0  0  0
    8.0774   -6.2040   16.8206 S   0  0  0  0  0  0  0  0  0  0  0  0
    1.7637   -9.5467   15.9223 C   0  0  0  0  0  0  0  0  0  0  0  0
    0.9653  -10.8024   18.4187 Cl  0  0  0  0  0  0  0  0  0  0  0  0
    0.1825  -10.9961   16.9184 C   0  0  0  0  0  0  0  0  0  0  0  0
   10.8668   -4.6479   20.8685 C   0  0  0  0  0  0  0  0  0  0  0  0
    5.7245  -10.7029   14.2222 O   0  0  0  0  0  0  0  0  0  0  0  0
    6.1757   -7.8193   15.3192 C   0  0  0  0  0  0  0  0  0  0  0  0
   -0.7766  -11.1233   16.2668 C   0  0  0  0  0  0  0  0  0  0  0  0
    5.3666  -11.3311   17.6985 C   0  0  0  0  0  0  0  0  0  0  0  0
   -1.2356  -11.7736   15.1353 C   0  0  0  0  0  0  0  0  0  0  0  0
    2.7115   -8.6181   18.4682 C   0  0  0  0  0  0  0  0  0  0  0  0
    6.4846   -7.7751   18.3916 C   0  0  0  0  0  0  0  0  0  0  0  0
   10.7164   -6.5531   18.2321 C   0  0  0  0  0  0  0  0  0  0  0  0
    8.9395   -6.5798   17.6963 N   0  0  0  0  0  0  0  0  0  0  0  0
   11.1923   -3.3094   19.6817 F   0  0  0  0  0  0  0  0  0  0  0  0
    0.9064   -9.7210   15.4032 C   0  0  0  0  0  0  0  0  0  0  0  0
    7.1359   -7.7279   15.5440 C   0  0  0  0  0  0  0  0  0  0  0  0
   10.5229   -4.0583   18.3049 C   0  0  0  0  0  0  0  0  0  0  0  0
    2.0427   -9.5280   17.1464 F   0  0  0  0  0  0  0  0  0  0  0  0
    5.1131  -10.6156   18.1239 N   0  0  0  0  0  0  0  0  0  0  0  0
   10.6113   -4.2181   20.0674 F   0  0  0  0  0  0  0  0  0  0  0  0
    6.1801   -9.3919   19.3271 O   0  0  0  0  0  0  0  0  0  0  0  0
    3.6678   -7.2868   16.7277 S   0  0  0  0  0  0  0  0  0  0  0  0
    8.7245   -6.4637   17.5829 He  0  0  0  0  0  0  0  0  0  0  0  0
    3.7675   -9.4405   15.5901 He  0  0  0  0  0  0  0  0  0  0  0  0
   -1.0353  -10.8610   13.4650 He  0  0  0  0  0  0  0  0  0  0  0  0
    2.5194   -8.2559   14.3327 He  0  0  0  0  0  0  0  0  0  0  0  0
    5.4300   -8.4191   17.0520 He  0  0  0  0  0  0  0  0  0  0  0  0
    9.8359   -4.0108   16.3338 He  0  0  0  0  0  0  0  0  0  0  0  0
    9.7146   -5.1603   18.7610 He  0  0  0  0  0  0  0  0  0  0  0  0
   10.1340   -4.2379   17.2755 He  0  0  0  0  0  0  0  0  0  0  0  0
    0.3187  -10.3058   14.2215 He  0  0  0  0  0  0  0  0  0  0  0  0
  1  2  4  0
  1  8  3  0
  1  9  3  0
  1 11  3  0
  1 13  2  0
  1 16  4  0
  1 20  4  0
  1 24  1  0
  2  3  4  0
  2  4  3  0
  2  7  4  0
  2  8  4  0
  2 11  3  0
  2 13  2  0
  2 17  4  0
  2 22  4  0
  2 24  3  0
  3  6  4  0
  3  8  2  0
  3 12  2  0
  3 16  4  0
  3 17  1  0
  4  8  1  0
  4  9  3  0
  4 10  4  0
  4 14  2  0
  4 18  4  0
  4 21  2  0
  4 22  1  0
  5  7  3  0
  5 11  3  0
  5 13  4  0
  5 23  1  0
  6 10  4  0
  6 13  4  0
  6 17  4  0
  6 18  4  0
  7  8  4  0
  7 11  1  0
  7 16  4  0
  8 12  4  0
  8 13  2  0
  8 17  1  0
  8 21  4  0
  8 23  1  0
  8 25  2  0
  9 11  2  0
  9 12  1  0
  9 13  1  0
  9 16  1  0
  9 19  2  0
  9 21  2  0
  9 22  2  0
  9 23  3  0
 10 12  4  0
 10 15  1  0
 10 17  3  0
 10 25  3  0
 11 12  2  0
 11 14  3  0
 11 15  4  0
 11 16  4  0
 11 18  3  0
 11 22  2  0
 11 24  4  0
 12 15  1  0
 13 17  3  0
 13 23  4  0
 14 17  2  0
 15 16  4  0
 15 18  1  0
 16 20  2  0
 16 22  3  0
 16 23  2  0
 17 20  4  0
 17 24  3  0
 19 23  2  0
 19 24  3  0
 19 25  2  0
 21 22  1  0
 22 23  3  0
 22 24  2  0
M  END
$$$$

 Created by Python create_sdf_string function

 34 32  0  0  0  0  0  0  0  0999 V2000
    4.5200   -8.4591   16.6827 C   0  0  0  0  0  0  0  0  0  0  0  0
   11.1079   -3.3186   20.5580 N   0  0  0  0  0  0  0  0  0  0  0  0
    8.3515   -6.2535   16.1928 C   0  0  0  0  0  0  0  0  0  0  0  0
    1.9085   -9.4194   15.9650 C   0  0  0  0  0  0  0  0  0  0  0  0
    0.8386  -10.7346   17.9503 N   0  0  0  0  0  0  0  0  0  0  0  0
    8.1999   -7.0795   17.5150 C   0  0  0  0  0  0  0  0  0  0  0  0
    0.2493  -10.7576   16.6183 C   0  0  0  0  0  0  0  0  0  0  0  0
   10.7881   -4.5636   21.0632 C   0  0  0  0  0  0  0  0  0  0  0  0
    5.3998   -9.7630   14.8272 O   0  0  0  0  0  0  0  0  0  0  0  0
    6.3237   -7.9485   15.5637 C   0  0  0  0  0  0  0  0  0  0  0  0
   -0.7612  -11.4837   16.3667 C   0  0  0  0  0  0  0  0  0  0  0  0
    3.5596   -8.7704   15.5091 C   0  0  0  0  0  0  0  0  0  0  0  0
   -0.7579  -11.0011   14.0151 C   0  0  0  0  0  0  0  0  0  0  0  0
    5.1899  -10.4191   17.4819 C   0  0  0  0  0  0  0  0  0  0  0  0
    2.6667   -8.5565   14.7380 C   0  0  0  0  0  0  0  0  0  0  0  0
    5.8794   -8.2811   17.0118 C   0  0  0  0  0  0  0  0  0  0  0  0
   -1.2690  -11.6236   15.1146 C   0  0  0  0  0  0  0  0  0  0  0  0
    2.1021  -10.1892   18.0771 C   0  0  0  0  0  0  0  0  0  0  0  0
   10.0449   -3.9918   16.9100 C   0  0  0  0  0  0  0  0  0  0  0  0
    6.7391   -7.7898   17.9770 C   0  0  0  0  0  0  0  0  0  0  0  0
    9.7874   -6.2382   18.2582 C   0  0  0  0  0  0  0  0  0  0  0  0
    8.8907   -6.4626   17.3391 C   0  0  0  0  0  0  0  0  0  0  0  0
   10.9745   -3.0766   19.2722 C   0  0  0  0  0  0  0  0  0  0  0  0
    0.8457  -10.0254   15.4929 C   0  0  0  0  0  0  0  0  0  0  0  0
    7.3538   -7.5522   15.4936 C   0  0  0  0  0  0  0  0  0  0  0  0
   10.4508   -3.9628   18.3582 C   0  0  0  0  0  0  0  0  0  0  0  0
    2.3889   -9.5117   17.1715 C   0  0  0  0  0  0  0  0  0  0  0  0
   10.3173   -5.2440   18.8982 C   0  0  0  0  0  0  0  0  0  0  0  0
    5.0157  -10.2482   17.9140 C   0  0  0  0  0  0  0  0  0  0  0  0
   10.4889   -5.5939   20.0332 C   0  0  0  0  0  0  0  0  0  0  0  0
    9.5451   -4.7700   16.6374 C   0  0  0  0  0  0  0  0  0  0  0  0
    5.5217   -9.4534   19.1296 O   0  0  0  0  0  0  0  0  0  0  0  0
    4.0760   -7.8918   16.2590 C   0  0  0  0  0  0  0  0  0  0  0  0
    0.2758  -10.1826   14.1954 C   0  0  0  0  0  0  0  0  0  0  0  0
  1 16  1  0
  1 33  1  0
  2  8  4  0
  2 23  4  0
  3 22  4  0
  3 25  4  0
  4 24  4  0
  4 27  4  0
  5  7  4  0
  5 18  4  0
  6 20  1  0
  6 22  4  0
  7 11  4  0
  7 24  4  0
  8 30  4  0
 10 25  4  0
 11 17  4  0
 12 15  1  0
 12 33  1  0
 13 17  4  0
 13 34  4  0
 14 29  1  0
 16 20  4  0
 18 27  4  0
 19 26  4  0
 19 31  4  0
 21 22  4  0
 21 28  4  0
 23 26  4  0
 24 34  4  0
 26 28  4  0
 28 30  4  0
M  END
$$$$

 Created by Python create_sdf_string function

 34 92  0  0  0  0  0  0  0  0999 V2000
   11.1787   -3.2899   20.3255 N   0  0  0  0  0  0  0  0  0  0  0  0
    1.7572   -9.4050   15.1285 C   0  0  0  0  0  0  0  0  0  0  0  0
    0.7081  -10.4878   17.9141 N   0  0  0  0  0  0  0  0  0  0  0  0
    9.1359   -6.7266   16.2760 Cl  0  0  0  0  0  0  0  0  0  0  0  0
    0.4520  -10.9386   16.5202 C   0  0  0  0  0  0  0  0  0  0  0  0
   10.7705   -3.8718   21.1712 C   0  0  0  0  0  0  0  0  0  0  0  0
    5.4271   -8.3224   15.5608 C   0  0  0  0  0  0  0  0  0  0  0  0
   -0.4159  -11.5421   16.1358 C   0  0  0  0  0  0  0  0  0  0  0  0
    4.5472   -8.2469   14.8895 O   0  0  0  0  0  0  0  0  0  0  0  0
   -0.8239  -11.4828   14.0861 C   0  0  0  0  0  0  0  0  0  0  0  0
    5.3862  -10.1518   16.2527 Cl  0  0  0  0  0  0  0  0  0  0  0  0
    2.2918  -10.3139   15.6570 C   0  0  0  0  0  0  0  0  0  0  0  0
    5.4636   -8.0410   18.0601 N   0  0  0  0  0  0  0  0  0  0  0  0
   -1.1493  -11.3658   14.9581 C   0  0  0  0  0  0  0  0  0  0  0  0
    2.8347  -10.7009   17.5868 C   0  0  0  0  0  0  0  0  0  0  0  0
   10.2210   -3.0388   17.1682 C   0  0  0  0  0  0  0  0  0  0  0  0
    6.7854   -7.9393   18.1330 C   0  0  0  0  0  0  0  0  0  0  0  0
   10.3692   -7.6186   18.9306 C   0  0  0  0  0  0  0  0  0  0  0  0
    0.5102  -10.2634   15.6674 C   0  0  0  0  0  0  0  0  0  0  0  0
    7.5205   -7.6591   15.2430 Cl  0  0  0  0  0  0  0  0  0  0  0  0
   10.6025   -3.2772   18.3441 C   0  0  0  0  0  0  0  0  0  0  0  0
    2.1640   -9.9237   17.3654 C   0  0  0  0  0  0  0  0  0  0  0  0
    5.3026   -9.9641   19.4203 C   0  0  0  0  0  0  0  0  0  0  0  0
    9.6075   -4.6275   16.6028 C   0  0  0  0  0  0  0  0  0  0  0  0
    6.4815   -8.8552   17.9054 O   0  0  0  0  0  0  0  0  0  0  0  0
    4.3695   -8.6527   17.6445 C   0  0  0  0  0  0  0  0  0  0  0  0
    0.5452  -10.0567   14.1630 C   0  0  0  0  0  0  0  0  0  0  0  0
    4.3610   -8.8937   15.7708 He  0  0  0  0  0  0  0  0  0  0  0  0
   10.3422   -6.0165   14.7884 He  0  0  0  0  0  0  0  0  0  0  0  0
    5.1267  -11.5646   14.4462 He  0  0  0  0  0  0  0  0  0  0  0  0
    8.4802   -6.0170   17.5661 He  0  0  0  0  0  0  0  0  0  0  0  0
   10.4304   -3.2699   19.8312 He  0  0  0  0  0  0  0  0  0  0  0  0
   10.3152   -5.7685   18.7951 He  0  0  0  0  0  0  0  0  0  0  0  0
    9.5125   -5.7177   19.5403 He  0  0  0  0  0  0  0  0  0  0  0  0
  1  2  2  0
  1  6  4  0
  1 11  2  0
  1 19  1  0
  1 26  3  0
  2  3  2  0
  2  4  4  0
  2  5  4  0
  2  9  4  0
  2 14  4  0
  2 16  2  0
  2 25  4  0
  2 26  1  0
  2 27  4  0
  3  5  4  0
  3 12  4  0
  3 13  2  0
  4  9  1  0
  4 11  4  0
  4 20  1  0
  4 21  2  0
  4 23  1  0
  4 26  3  0
  5  8  4  0
  5 10  1  0
  5 12  2  0
  5 14  2  0
  5 19  4  0
  5 22  3  0
  6  9  1  0
  6 13  4  0
  6 15  2  0
  6 18  4  0
  7  8  4  0
  7  9  1  0
  7 11  1  0
  7 14  1  0
  7 15  4  0
  7 19  1  0
  7 20  4  0
  7 22  4  0
  7 23  1  0
  7 25  2  0
  8 11  3  0
  8 14  2  0
  8 17  1  0
  8 25  4  0
  9 13  2  0
  9 17  4  0
  9 18  3  0
  9 19  2  0
  9 25  3  0
  9 27  2  0
 10 14  2  0
 10 25  2  0
 10 26  3  0
 10 27  4  0
 11 16  1  0
 11 18  1  0
 11 23  1  0
 11 25  1  0
 11 26  2  0
 12 13  2  0
 12 15  3  0
 12 19  2  0
 12 24  2  0
 13 17  3  0
 13 19  3  0
 13 23  1  0
 13 24  3  0
 14 15  3  0
 14 18  1  0
 14 19  3  0
 14 21  3  0
 15 24  3  0
 16 19  1  0
 16 21  4  0
 16 24  4  0
 16 26  2  0
 17 23  2  0
 17 26  2  0
 18 22  2  0
 18 24  1  0
 18 25  3  0
 18 26  3  0
 19 25  3  0
 19 26  1  0
 19 27  4  0
 20 23  3  0
 22 23  2  0
 22 26  3  0
 24 25  1  0
M  END
$$$$

 Created by Python create_sdf_string function

 34 32  0  0  0  0  0  0  0  0999 V2000
    4.2003   -8.9868   16.0021 C   0  0  0  0  0  0  0  0  0  0  0  0
   10.8695   -3.3039   20.5153 N   0  0  0  0  0  0  0  0  0  0  0  0
    9.2469   -5.4570   15.8075 C   0  0  0  0  0  0  0  0  0  0  0  0
    2.5280   -9.0631   15.2206 C   0  0  0  0  0  0  0  0  0  0  0  0
    0.8043  -10.7528   17.7187 N   0  0  0  0  0  0  0  0  0  0  0  0
    8.4983   -6.5998   16.3481 C   0  0  0  0  0  0  0  0  0  0  0  0
    0.3028  -10.8609   16.5495 C   0  0  0  0  0  0  0  0  0  0  0  0
   10.7090   -4.5022   20.9991 C   0  0  0  0  0  0  0  0  0  0  0  0
    5.2901  -10.2065   14.7938 O   0  0  0  0  0  0  0  0  0  0  0  0
    5.5930   -8.5934   15.6136 C   0  0  0  0  0  0  0  0  0  0  0  0
   -0.7869  -11.6054   16.3267 C   0  0  0  0  0  0  0  0  0  0  0  0
    4.6456   -8.1467   14.9998 O   0  0  0  0  0  0  0  0  0  0  0  0
   -0.8300  -11.1770   13.9865 C   0  0  0  0  0  0  0  0  0  0  0  0
    5.7044   -9.5555   16.5166 C   0  0  0  0  0  0  0  0  0  0  0  0
    2.1805   -9.5917   16.0088 C   0  0  0  0  0  0  0  0  0  0  0  0
    5.6826   -8.1582   17.9333 N   0  0  0  0  0  0  0  0  0  0  0  0
   -1.2912  -11.8121   15.0448 C   0  0  0  0  0  0  0  0  0  0  0  0
    2.9153  -10.1911   17.9581 C   0  0  0  0  0  0  0  0  0  0  0  0
   10.3776   -3.5281   17.1044 C   0  0  0  0  0  0  0  0  0  0  0  0
    6.9151   -7.8620   18.0488 C   0  0  0  0  0  0  0  0  0  0  0  0
    9.7022   -6.5898   18.3674 C   0  0  0  0  0  0  0  0  0  0  0  0
    8.6679   -6.4971   17.3538 C   0  0  0  0  0  0  0  0  0  0  0  0
   10.9190   -3.0158   19.3681 C   0  0  0  0  0  0  0  0  0  0  0  0
    0.8565  -10.2471   15.4486 C   0  0  0  0  0  0  0  0  0  0  0  0
    7.7341   -7.5307   15.2730 C   0  0  0  0  0  0  0  0  0  0  0  0
   10.5407   -3.7311   18.4619 C   0  0  0  0  0  0  0  0  0  0  0  0
    2.2065  -10.1327   17.6871 C   0  0  0  0  0  0  0  0  0  0  0  0
   10.1490   -5.1906   18.9321 C   0  0  0  0  0  0  0  0  0  0  0  0
    5.4455   -9.4568   18.5803 C   0  0  0  0  0  0  0  0  0  0  0  0
   10.3218   -5.4600   19.9368 C   0  0  0  0  0  0  0  0  0  0  0  0
    9.8076   -4.4612   16.5296 C   0  0  0  0  0  0  0  0  0  0  0  0
    6.8337   -8.5890   17.4391 C   0  0  0  0  0  0  0  0  0  0  0  0
    4.4380   -8.8324   17.1094 C   0  0  0  0  0  0  0  0  0  0  0  0
    0.3092  -10.3229   14.1814 C   0  0  0  0  0  0  0  0  0  0  0  0
  1 33  1  0
  2  8  4  0
  2 23  4  0
  3  6  2  0
  3 31  1  0
  4 15  4  0
  5  7  4  0
  5 27  4  0
  6 22  1  0
  6 25  1  0
  7 11  4  0
  7 24  4  0
  8 30  4  0
 10 12  1  0
 10 14  1  0
 11 17  4  0
 13 17  4  0
 13 34  4  0
 14 32  1  0
 15 24  4  0
 16 20  1  0
 16 29  1  0
 18 27  4  0
 19 26  4  0
 19 31  4  0
 20 32  1  0
 21 22  1  0
 21 28  1  0
 23 26  4  0
 24 34  4  0
 26 28  4  0
 28 30  4  0
M  END
$$$$

 Created by Python create_sdf_string function

 34 68  0  0  0  0  0  0  0  0999 V2000
    4.4945   -8.5372   15.9206 I   0  0  0  0  0  0  0  0  0  0  0  0
    9.7941   -6.8934   17.0931 N   0  0  0  0  0  0  0  0  0  0  0  0
    1.0314   -9.1919   14.1107 C   0  0  0  0  0  0  0  0  0  0  0  0
    0.4723  -10.3309   17.8428 N   0  0  0  0  0  0  0  0  0  0  0  0
    8.6378   -5.0133   16.4013 C   0  0  0  0  0  0  0  0  0  0  0  0
    0.3799  -10.6386   16.1521 C   0  0  0  0  0  0  0  0  0  0  0  0
   10.8640   -4.0538   21.1543 C   0  0  0  0  0  0  0  0  0  0  0  0
   -1.0585  -11.4092   15.8614 N   0  0  0  0  0  0  0  0  0  0  0  0
   -1.1442  -11.2858   13.7229 C   0  0  0  0  0  0  0  0  0  0  0  0
    2.4477   -8.2849   16.5543 P   0  0  0  0  0  0  0  0  0  0  0  0
    5.3784   -8.3413   18.3818 C   0  0  0  0  0  0  0  0  0  0  0  0
   -1.6530  -11.5267   14.9704 C   0  0  0  0  0  0  0  0  0  0  0  0
   10.4728   -3.2730   17.0809 C   0  0  0  0  0  0  0  0  0  0  0  0
    6.7411   -8.1595   18.2587 C   0  0  0  0  0  0  0  0  0  0  0  0
    9.6432   -5.8766   18.2375 O   0  0  0  0  0  0  0  0  0  0  0  0
    9.0356   -6.4025   17.4421 C   0  0  0  0  0  0  0  0  0  0  0  0
   10.4320   -3.4613   19.4350 C   0  0  0  0  0  0  0  0  0  0  0  0
    1.0713   -9.4789   15.6414 Se  0  0  0  0  0  0  0  0  0  0  0  0
    8.3084   -8.0148   15.1226 C   0  0  0  0  0  0  0  0  0  0  0  0
   10.3342   -4.0580   18.2876 C   0  0  0  0  0  0  0  0  0  0  0  0
    2.0999  -10.3860   17.5834 C   0  0  0  0  0  0  0  0  0  0  0  0
    9.8115   -5.6264   19.1212 C   0  0  0  0  0  0  0  0  0  0  0  0
    5.6728   -9.4209   18.7913 N   0  0  0  0  0  0  0  0  0  0  0  0
    9.9745   -4.6547   16.1360 C   0  0  0  0  0  0  0  0  0  0  0  0
    0.9537  -10.1847   14.1651 C   0  0  0  0  0  0  0  0  0  0  0  0
   11.0093   -3.6149   20.3528 He  0  0  0  0  0  0  0  0  0  0  0  0
    4.5987  -10.2322   14.6858 He  0  0  0  0  0  0  0  0  0  0  0  0
    6.7324   -8.9186   15.3809 He  0  0  0  0  0  0  0  0  0  0  0  0
    5.2459   -8.5205   15.3451 He  0  0  0  0  0  0  0  0  0  0  0  0
    6.4922   -7.9505   15.7965 He  0  0  0  0  0  0  0  0  0  0  0  0
    2.7432  -10.8910   16.3396 He  0  0  0  0  0  0  0  0  0  0  0  0
   10.4867   -6.9333   19.3497 He  0  0  0  0  0  0  0  0  0  0  0  0
    7.7880   -8.3154   18.1159 He  0  0  0  0  0  0  0  0  0  0  0  0
    3.6460   -9.9297   16.4982 He  0  0  0  0  0  0  0  0  0  0  0  0
  1  5  2  0
  1 12  2  0
  1 18  4  0
  1 20  4  0
  1 24  2  0
  2  4  2  0
  2  5  3  0
  2  8  4  0
  2 14  4  0
  2 15  2  0
  2 17  4  0
  2 24  3  0
  3  5  2  0
  3  8  1  0
  3  9  4  0
  3 14  2  0
  3 15  4  0
  3 18  3  0
  3 19  2  0
  3 22  1  0
  4  6  4  0
  4 10  4  0
  4 21  1  0
  5  7  2  0
  5  8  4  0
  5 11  2  0
  5 13  4  0
  5 15  2  0
  5 16  1  0
  5 18  1  0
  5 24  2  0
  6  8  4  0
  6 11  3  0
  6 17  1  0
  6 18  4  0
  6 20  1  0
  7  8  1  0
  8 10  3  0
  8 12  4  0
  8 23  3  0
  9 12  4  0
  9 14  2  0
  9 15  1  0
  9 23  2  0
  9 25  1  0
 10 12  1  0
 10 15  4  0
 10 16  4  0
 10 18  1  0
 11 18  3  0
 11 19  2  0
 11 24  1  0
 11 25  1  0
 12 23  1  0
 13 20  1  0
 13 24  4  0
 14 22  1  0
 14 25  2  0
 15 16  2  0
 15 25  1  0
 17 20  4  0
 18 21  3  0
 18 23  3  0
 18 25  4  0
 19 23  4  0
 20 22  4  0
 20 24  1  0
 23 25  3  0
M  END
$$$$

 Created by Python create_sdf_string function

 34 32  0  0  0  0  0  0  0  0999 V2000
    4.3375   -8.7989   16.0697 C   0  0  0  0  0  0  0  0  0  0  0  0
   10.8455   -3.7121   20.7480 C   0  0  0  0  0  0  0  0  0  0  0  0
    9.0020   -7.2466   17.5639 N   0  0  0  0  0  0  0  0  0  0  0  0
    1.8202   -9.1976   14.4399 C   0  0  0  0  0  0  0  0  0  0  0  0
    0.6758  -10.6968   17.6583 N   0  0  0  0  0  0  0  0  0  0  0  0
    9.2197   -5.0791   16.3378 C   0  0  0  0  0  0  0  0  0  0  0  0
    0.2147  -10.6723   16.4244 C   0  0  0  0  0  0  0  0  0  0  0  0
   10.7850   -4.8898   21.1786 C   0  0  0  0  0  0  0  0  0  0  0  0
    4.4929   -9.4512   14.8506 O   0  0  0  0  0  0  0  0  0  0  0  0
    6.7077   -8.4938   15.5853 C   0  0  0  0  0  0  0  0  0  0  0  0
   -0.9362  -11.2850   16.0585 N   0  0  0  0  0  0  0  0  0  0  0  0
    5.5532   -8.6027   15.6530 C   0  0  0  0  0  0  0  0  0  0  0  0
   -0.8181  -10.9715   13.7735 C   0  0  0  0  0  0  0  0  0  0  0  0
    7.1087   -8.2379   15.9828 C   0  0  0  0  0  0  0  0  0  0  0  0
    2.6047   -8.5177   16.0401 C   0  0  0  0  0  0  0  0  0  0  0  0
    5.4478   -8.6952   17.8551 C   0  0  0  0  0  0  0  0  0  0  0  0
   -1.3814  -11.4817   14.8353 C   0  0  0  0  0  0  0  0  0  0  0  0
    2.5228   -9.7575   17.0554 C   0  0  0  0  0  0  0  0  0  0  0  0
   10.4458   -3.5097   17.0341 C   0  0  0  0  0  0  0  0  0  0  0  0
    7.2012   -8.1410   17.7364 C   0  0  0  0  0  0  0  0  0  0  0  0
    9.6432   -6.1730   17.9791 C   0  0  0  0  0  0  0  0  0  0  0  0
    9.1017   -6.3557   17.1788 C   0  0  0  0  0  0  0  0  0  0  0  0
   10.8311   -3.2523   19.5767 C   0  0  0  0  0  0  0  0  0  0  0  0
    0.9896  -10.0054   15.6248 C   0  0  0  0  0  0  0  0  0  0  0  0
    8.2604   -8.0237   15.0367 C   0  0  0  0  0  0  0  0  0  0  0  0
   10.4903   -4.0474   18.4697 C   0  0  0  0  0  0  0  0  0  0  0  0
    1.8281  -10.4355   17.9655 C   0  0  0  0  0  0  0  0  0  0  0  0
   10.1923   -5.3394   18.8470 C   0  0  0  0  0  0  0  0  0  0  0  0
    5.4529   -8.9100   18.4884 N   0  0  0  0  0  0  0  0  0  0  0  0
   10.4237   -5.7325   20.1181 C   0  0  0  0  0  0  0  0  0  0  0  0
    9.7711   -4.1759   16.1776 C   0  0  0  0  0  0  0  0  0  0  0  0
    7.0748   -8.1478   17.8818 C   0  0  0  0  0  0  0  0  0  0  0  0
    3.5003   -9.2082   16.6934 C   0  0  0  0  0  0  0  0  0  0  0  0
    0.4543  -10.0918   14.1069 C   0  0  0  0  0  0  0  0  0  0  0  0
  1 12  4  0
  1 33  1  0
  2  8  4  0
  2 23  4  0
  3 22  4  0
  4 34  4  0
  5  7  4  0
  5 27  4  0
  6 22  4  0
  6 31  4  0
  7 11  4  0
  7 24  4  0
  8 30  4  0
 10 12  1  0
 10 14  4  0
 11 17  4  0
 13 17  4  0
 13 34  4  0
 14 25  1  0
 16 29  2  0
 16 32  4  0
 18 27  4  0
 18 33  4  0
 19 26  4  0
 19 31  4  0
 20 32  4  0
 21 22  4  0
 21 28  4  0
 23 26  4  0
 24 34  4  0
 26 28  4  0
 28 30  4  0
M  END
$$$$

 Created by Python create_sdf_string function

 34121  0  0  0  0  0  0  0  0999 V2000
    5.0162   -9.8913   16.9643 B   0  0  0  0  0  0  0  0  0  0  0  0
   10.6237   -3.7681   21.2383 C   0  0  0  0  0  0  0  0  0  0  0  0
    9.4059   -6.8249   17.5079 P   0  0  0  0  0  0  0  0  0  0  0  0
    0.6117  -11.0895   17.6498 N   0  0  0  0  0  0  0  0  0  0  0  0
    8.5487   -4.9789   16.7130 O   0  0  0  0  0  0  0  0  0  0  0  0
    0.3811  -10.9186   16.3865 C   0  0  0  0  0  0  0  0  0  0  0  0
   11.0505   -5.3538   21.5462 F   0  0  0  0  0  0  0  0  0  0  0  0
    6.9834   -8.8575   16.1441 C   0  0  0  0  0  0  0  0  0  0  0  0
   -1.0956  -10.9678   16.0777 N   0  0  0  0  0  0  0  0  0  0  0  0
    4.3605   -8.0368   15.9231 C   0  0  0  0  0  0  0  0  0  0  0  0
   -0.2247  -10.8126   13.7963 C   0  0  0  0  0  0  0  0  0  0  0  0
    7.3380   -9.5032   17.0918 P   0  0  0  0  0  0  0  0  0  0  0  0
    2.4654   -9.2113   17.3420 C   0  0  0  0  0  0  0  0  0  0  0  0
    4.7395   -8.7457   19.3576 C   0  0  0  0  0  0  0  0  0  0  0  0
   -1.7194  -11.9266   14.6698 C   0  0  0  0  0  0  0  0  0  0  0  0
    2.3283  -10.3569   17.6086 C   0  0  0  0  0  0  0  0  0  0  0  0
   10.4029   -3.9352   16.7083 C   0  0  0  0  0  0  0  0  0  0  0  0
    9.4058   -8.3414   17.5058 I   0  0  0  0  0  0  0  0  0  0  0  0
    8.7467   -6.3732   17.2877 C   0  0  0  0  0  0  0  0  0  0  0  0
    1.2455   -9.6923   15.6539 C   0  0  0  0  0  0  0  0  0  0  0  0
    7.9819   -7.5357   15.0483 C   0  0  0  0  0  0  0  0  0  0  0  0
   10.1211   -4.0376   18.2984 C   0  0  0  0  0  0  0  0  0  0  0  0
    1.5988  -10.4619   18.1348 C   0  0  0  0  0  0  0  0  0  0  0  0
    9.7598   -5.5011   18.4814 C   0  0  0  0  0  0  0  0  0  0  0  0
    5.7613   -8.9718   17.2563 C   0  0  0  0  0  0  0  0  0  0  0  0
   10.1434   -6.3564   20.0984 C   0  0  0  0  0  0  0  0  0  0  0  0
    9.7023   -4.0502   16.1712 C   0  0  0  0  0  0  0  0  0  0  0  0
    4.1968   -8.6027   16.5164 C   0  0  0  0  0  0  0  0  0  0  0  0
    0.5253  -10.2402   14.2097 C   0  0  0  0  0  0  0  0  0  0  0  0
    1.5754   -8.0794   14.3933 He  0  0  0  0  0  0  0  0  0  0  0  0
    6.1323   -8.9360   14.7170 He  0  0  0  0  0  0  0  0  0  0  0  0
    6.9453   -8.2812   17.9081 He  0  0  0  0  0  0  0  0  0  0  0  0
   10.8694   -3.5151   19.5221 He  0  0  0  0  0  0  0  0  0  0  0  0
    6.6379   -9.0042   17.7606 He  0  0  0  0  0  0  0  0  0  0  0  0
  1  9  2  0
  1 10  4  0
  1 13  1  0
  1 16  1  0
  1 17  1  0
  1 22  1  0
  1 27  1  0
  1 28  1  0
  2  3  4  0
  2  8  4  0
  2 10  2  0
  2 11  1  0
  2 13  3  0
  2 14  2  0
  2 16  2  0
  2 24  2  0
  2 25  3  0
  2 26  4  0
  2 27  4  0
  3  4  2  0
  3  8  3  0
  3 11  3  0
  3 12  2  0
  3 23  2  0
  3 25  1  0
  3 29  4  0
  4  5  1  0
  4  6  4  0
  4 11  2  0
  4 13  2  0
  4 14  3  0
  4 18  4  0
  4 21  3  0
  4 23  4  0
  5  6  3  0
  5  7  1  0
  5 10  2  0
  5 13  1  0
  5 17  2  0
  5 21  4  0
  5 23  3  0
  5 27  4  0
  5 28  1  0
  5 29  2  0
  6  9  4  0
  6 14  3  0
  6 15  3  0
  6 16  3  0
  6 17  2  0
  6 18  3  0
  6 20  4  0
  6 25  4  0
  6 26  2  0
  7 14  4  0
  7 25  2  0
  7 26  4  0
  8  9  1  0
  8 10  4  0
  8 12  3  0
  8 13  2  0
  8 19  1  0
  8 23  1  0
  8 24  2  0
  8 27  1  0
  9 13  2  0
  9 15  4  0
  9 16  4  0
  9 23  1  0
  9 25  2  0
  9 26  3  0
  9 28  1  0
 10 11  4  0
 10 14  4  0
 10 18  4  0
 10 22  3  0
 10 27  1  0
 10 29  1  0
 11 15  4  0
 11 16  1  0
 11 19  2  0
 11 20  4  0
 11 24  2  0
 12 13  3  0
 12 20  2  0
 12 21  3  0
 12 23  3  0
 12 26  4  0
 12 28  2  0
 13 22  3  0
 13 23  3  0
 13 24  3  0
 14 16  3  0
 14 17  3  0
 14 18  2  0
 14 22  3  0
 14 24  3  0
 14 25  2  0
 14 27  4  0
 15 19  2  0
 16 18  2  0
 16 19  4  0
 16 21  1  0
 16 24  2  0
 16 28  4  0
 17 19  4  0
 17 22  4  0
 17 27  4  0
 18 19  2  0
 20 29  4  0
 21 22  3  0
 21 24  1  0
 21 28  4  0
 21 29  4  0
 22 23  2  0
 22 24  4  0
 23 25  2  0
 23 28  1  0
 24 26  3  0
 24 28  4  0
 25 27  3  0
 26 29  2  0
M  END
$$$$

 Created by Python create_sdf_string function

 34 30  0  0  0  0  0  0  0  0999 V2000
    4.4500   -9.1075   17.0686 C   0  0  0  0  0  0  0  0  0  0  0  0
   10.9112   -3.8669   20.8402 C   0  0  0  0  0  0  0  0  0  0  0  0
    8.9634   -6.7506   17.5915 C   0  0  0  0  0  0  0  0  0  0  0  0
    2.5802   -8.5209   15.2021 C   0  0  0  0  0  0  0  0  0  0  0  0
    0.4591  -11.0104   17.8081 N   0  0  0  0  0  0  0  0  0  0  0  0
    9.0306   -5.1331   16.1650 C   0  0  0  0  0  0  0  0  0  0  0  0
    0.1130  -10.8609   16.5120 C   0  0  0  0  0  0  0  0  0  0  0  0
   10.6980   -5.2187   21.1224 C   0  0  0  0  0  0  0  0  0  0  0  0
    6.1549   -8.7873   15.1699 C   0  0  0  0  0  0  0  0  0  0  0  0
    6.9558   -8.5116   15.6378 C   0  0  0  0  0  0  0  0  0  0  0  0
   -1.0015  -11.4958   15.9631 N   0  0  0  0  0  0  0  0  0  0  0  0
    4.3082   -8.4863   15.5669 C   0  0  0  0  0  0  0  0  0  0  0  0
   -0.5779  -10.7696   13.7856 C   0  0  0  0  0  0  0  0  0  0  0  0
    7.0538   -8.6375   16.7746 C   0  0  0  0  0  0  0  0  0  0  0  0
    2.0645   -9.5791   16.4102 C   0  0  0  0  0  0  0  0  0  0  0  0
    5.4137   -9.2855   18.7481 O   0  0  0  0  0  0  0  0  0  0  0  0
   -1.3177  -11.4690   14.6328 C   0  0  0  0  0  0  0  0  0  0  0  0
    2.4422   -9.9791   17.5523 C   0  0  0  0  0  0  0  0  0  0  0  0
   10.1938   -3.6931   17.1548 C   0  0  0  0  0  0  0  0  0  0  0  0
    7.0647   -8.1161   18.4249 C   0  0  0  0  0  0  0  0  0  0  0  0
    9.1590   -8.0341   17.6307 C   0  0  0  0  0  0  0  0  0  0  0  0
    9.1137   -6.0926   17.2142 C   0  0  0  0  0  0  0  0  0  0  0  0
   10.7902   -3.3925   19.6224 N   0  0  0  0  0  0  0  0  0  0  0  0
    0.8693  -10.1601   15.7103 C   0  0  0  0  0  0  0  0  0  0  0  0
    8.0764   -7.7413   15.2218 C   0  0  0  0  0  0  0  0  0  0  0  0
   10.3434   -4.1558   18.4762 C   0  0  0  0  0  0  0  0  0  0  0  0
    1.6028  -10.7406   18.3195 C   0  0  0  0  0  0  0  0  0  0  0  0
    9.9766   -5.4404   18.7541 C   0  0  0  0  0  0  0  0  0  0  0  0
    5.4572   -8.9880   17.4524 C   0  0  0  0  0  0  0  0  0  0  0  0
   10.2941   -5.9166   20.0894 C   0  0  0  0  0  0  0  0  0  0  0  0
    9.6522   -3.9878   16.1787 C   0  0  0  0  0  0  0  0  0  0  0  0
    7.3964   -8.2794   17.5967 C   0  0  0  0  0  0  0  0  0  0  0  0
    3.9203   -8.8701   16.4994 C   0  0  0  0  0  0  0  0  0  0  0  0
    0.4894  -10.0431   14.2489 C   0  0  0  0  0  0  0  0  0  0  0  0
  1 29  4  0
  1 33  1  0
  2  8  4  0
  2 23  4  0
  3 22  4  0
  4 12  4  0
  4 15  4  0
  5  7  4  0
  5 27  4  0
  6 22  4  0
  6 31  4  0
  7 11  4  0
  7 24  4  0
  8 30  4  0
  9 10  4  0
 11 17  4  0
 13 17  4  0
 13 34  4  0
 14 32  4  0
 15 18  4  0
 15 24  4  0
 16 29  2  0
 18 27  4  0
 19 26  4  0
 19 31  4  0
 20 32  1  0
 23 26  4  0
 24 34  4  0
 26 28  4  0
 28 30  4  0
M  END
$$$$

 Created by Python create_sdf_string function

 34 77  0  0  0  0  0  0  0  0999 V2000
   11.2263   -3.9155   21.5505 C   0  0  0  0  0  0  0  0  0  0  0  0
    0.7091  -10.9242   17.7056 N   0  0  0  0  0  0  0  0  0  0  0  0
    0.0557  -10.7468   16.3185 C   0  0  0  0  0  0  0  0  0  0  0  0
   10.9942   -5.8039   21.4041 C   0  0  0  0  0  0  0  0  0  0  0  0
    6.2659   -7.8970   14.6640 C   0  0  0  0  0  0  0  0  0  0  0  0
    6.7699   -8.7778   14.1578 F   0  0  0  0  0  0  0  0  0  0  0  0
   -1.0143  -11.1210   15.3904 N   0  0  0  0  0  0  0  0  0  0  0  0
   -0.7080  -10.5127   13.9445 C   0  0  0  0  0  0  0  0  0  0  0  0
    5.5032   -8.3002   16.9991 C   0  0  0  0  0  0  0  0  0  0  0  0
    2.2758  -10.9548   16.0769 F   0  0  0  0  0  0  0  0  0  0  0  0
    5.4779   -8.3130   19.7514 O   0  0  0  0  0  0  0  0  0  0  0  0
   -1.4488  -11.3422   14.5925 C   0  0  0  0  0  0  0  0  0  0  0  0
    2.1261   -9.8282   18.0821 C   0  0  0  0  0  0  0  0  0  0  0  0
    9.9429   -3.6349   17.1572 C   0  0  0  0  0  0  0  0  0  0  0  0
    7.4479   -7.9512   18.9013 C   0  0  0  0  0  0  0  0  0  0  0  0
    8.8563   -5.8634   17.4694 C   0  0  0  0  0  0  0  0  0  0  0  0
   10.4207   -3.2928   19.3566 N   0  0  0  0  0  0  0  0  0  0  0  0
    0.9744  -10.1287   16.2311 F   0  0  0  0  0  0  0  0  0  0  0  0
    8.3957   -8.0447   15.3820 Cl  0  0  0  0  0  0  0  0  0  0  0  0
    1.6765  -10.5074   18.3692 C   0  0  0  0  0  0  0  0  0  0  0  0
   10.0308   -5.3092   18.4491 C   0  0  0  0  0  0  0  0  0  0  0  0
   11.1257   -5.8368   18.7582 C   0  0  0  0  0  0  0  0  0  0  0  0
    9.6085   -4.1482   16.1046 C   0  0  0  0  0  0  0  0  0  0  0  0
    8.3802   -7.9279   17.0192 O   0  0  0  0  0  0  0  0  0  0  0  0
    0.2285  -10.4304   14.3344 C   0  0  0  0  0  0  0  0  0  0  0  0
    4.0692   -9.5638   16.9246 He  0  0  0  0  0  0  0  0  0  0  0  0
    9.7758   -5.9257   18.0775 He  0  0  0  0  0  0  0  0  0  0  0  0
    2.9654   -9.1780   15.0600 He  0  0  0  0  0  0  0  0  0  0  0  0
    9.9872   -5.6325   16.0856 He  0  0  0  0  0  0  0  0  0  0  0  0
    4.8300  -10.4541   15.5752 He  0  0  0  0  0  0  0  0  0  0  0  0
   10.1862   -8.4675   17.5128 He  0  0  0  0  0  0  0  0  0  0  0  0
   10.2853   -3.8762   18.8510 He  0  0  0  0  0  0  0  0  0  0  0  0
    5.2017   -9.4918   16.4038 He  0  0  0  0  0  0  0  0  0  0  0  0
    4.2959   -9.3184   16.4057 He  0  0  0  0  0  0  0  0  0  0  0  0
  1  4  4  0
  1  6  2  0
  1 17  4  0
  1 24  4  0
  2  3  4  0
  2  9  3  0
  2 10  4  0
  2 11  4  0
  2 19  3  0
  2 20  4  0
  2 24  4  0
  3  7  4  0
  3 17  3  0
  3 18  4  0
  4  5  3  0
  4 14  4  0
  4 15  4  0
  4 24  4  0
  5  6  4  0
  5  9  3  0
  5 12  1  0
  5 17  2  0
  5 18  4  0
  5 23  2  0
  6  7  3  0
  6  8  3  0
  6  9  2  0
  6 11  4  0
  6 12  1  0
  6 14  2  0
  6 16  2  0
  6 17  1  0
  6 18  1  0
  6 19  2  0
  6 20  4  0
  6 23  1  0
  6 24  2  0
  7 22  2  0
  7 24  2  0
  8 10  2  0
  8 12  4  0
  8 20  1  0
  8 25  4  0
  9 11  1  0
  9 14  2  0
  9 15  4  0
  9 18  2  0
  9 25  1  0
 10 12  3  0
 10 15  1  0
 10 16  3  0
 10 18  4  0
 10 19  4  0
 10 22  3  0
 10 24  2  0
 10 25  3  0
 11 13  3  0
 11 16  3  0
 11 18  3  0
 11 21  4  0
 11 22  1  0
 13 18  2  0
 13 23  2  0
 14 15  1  0
 14 23  4  0
 15 24  3  0
 18 22  4  0
 18 24  1  0
 18 25  4  0
 19 22  4  0
 19 23  3  0
 20 21  4  0
 20 24  4  0
 21 24  4  0
 21 25  3  0
 23 24  3  0
 24 25  2  0
M  END
$$$$

 Created by Python create_sdf_string function

 34 32  0  0  0  0  0  0  0  0999 V2000
    3.8847   -9.2127   17.0780 C   0  0  0  0  0  0  0  0  0  0  0  0
   11.0184   -3.8728   20.9841 C   0  0  0  0  0  0  0  0  0  0  0  0
    9.5920   -5.9717   17.8391 C   0  0  0  0  0  0  0  0  0  0  0  0
    3.1626   -9.0609   15.3620 C   0  0  0  0  0  0  0  0  0  0  0  0
    0.3788  -11.1126   17.7499 N   0  0  0  0  0  0  0  0  0  0  0  0
    9.1432   -5.1847   16.2150 C   0  0  0  0  0  0  0  0  0  0  0  0
    0.0575  -10.9052   16.4670 C   0  0  0  0  0  0  0  0  0  0  0  0
   11.1284   -5.1996   21.1169 C   0  0  0  0  0  0  0  0  0  0  0  0
    6.6903   -8.4446   15.4232 C   0  0  0  0  0  0  0  0  0  0  0  0
    6.8633   -8.7241   15.2474 C   0  0  0  0  0  0  0  0  0  0  0  0
   -1.0877  -11.4230   15.8524 N   0  0  0  0  0  0  0  0  0  0  0  0
    4.6847   -9.5480   15.2037 C   0  0  0  0  0  0  0  0  0  0  0  0
   -0.5569  -10.6547   13.7717 C   0  0  0  0  0  0  0  0  0  0  0  0
    6.0521   -8.5491   17.4897 C   0  0  0  0  0  0  0  0  0  0  0  0
    2.0207   -9.7633   16.4076 C   0  0  0  0  0  0  0  0  0  0  0  0
    5.3923   -8.7551   19.1520 O   0  0  0  0  0  0  0  0  0  0  0  0
   -1.4571  -11.2717   14.5402 C   0  0  0  0  0  0  0  0  0  0  0  0
    2.4419   -9.9775   17.7038 C   0  0  0  0  0  0  0  0  0  0  0  0
   10.1899   -3.4979   17.2983 C   0  0  0  0  0  0  0  0  0  0  0  0
    7.2603   -7.9601   17.9551 C   0  0  0  0  0  0  0  0  0  0  0  0
    9.4013   -8.0431   17.6961 C   0  0  0  0  0  0  0  0  0  0  0  0
    9.2262   -5.9682   17.0556 C   0  0  0  0  0  0  0  0  0  0  0  0
   10.7925   -3.2749   19.7498 N   0  0  0  0  0  0  0  0  0  0  0  0
    0.8706  -10.2483   15.7103 C   0  0  0  0  0  0  0  0  0  0  0  0
    8.2778   -8.1116   15.5090 C   0  0  0  0  0  0  0  0  0  0  0  0
   10.3843   -4.0276   18.6112 C   0  0  0  0  0  0  0  0  0  0  0  0
    1.4278  -10.7300   18.3493 C   0  0  0  0  0  0  0  0  0  0  0  0
   10.2171   -5.2587   18.8568 C   0  0  0  0  0  0  0  0  0  0  0  0
    5.0550   -9.2115   16.5310 C   0  0  0  0  0  0  0  0  0  0  0  0
   10.6419   -5.8649   20.0221 C   0  0  0  0  0  0  0  0  0  0  0  0
    9.7136   -3.8981   16.2355 C   0  0  0  0  0  0  0  0  0  0  0  0
    8.3140   -7.9247   17.1224 C   0  0  0  0  0  0  0  0  0  0  0  0
    4.3929   -9.0828   17.1565 C   0  0  0  0  0  0  0  0  0  0  0  0
    0.5935  -10.1012   14.3212 C   0  0  0  0  0  0  0  0  0  0  0  0
  1 33  1  0
  2  8  4  0
  2 23  4  0
  3 22  4  0
  3 28  4  0
  5  7  4  0
  5 27  4  0
  6 22  4  0
  6 31  4  0
  7 11  4  0
  7 24  4  0
  8 30  4  0
  9 10  4  0
  9 25  4  0
 10 25  4  0
 11 17  4  0
 13 17  4  0
 13 34  4  0
 14 16  1  0
 14 20  4  0
 15 18  4  0
 15 24  4  0
 18 27  4  0
 19 26  4  0
 19 31  4  0
 20 32  4  0
 21 32  1  0
 23 26  4  0
 24 34  4  0
 25 32  4  0
 26 28  4  0
 28 30  4  0
M  END
$$$$

 Created by Python create_sdf_string function

 34 75  0  0  0  0  0  0  0  0999 V2000
    4.3370   -9.2991   17.4153 O   0  0  0  0  0  0  0  0  0  0  0  0
    9.2592   -5.2541   17.6546 P   0  0  0  0  0  0  0  0  0  0  0  0
    3.0870   -9.2055   15.8750 Cl  0  0  0  0  0  0  0  0  0  0  0  0
    0.3593  -11.2554   17.6410 N   0  0  0  0  0  0  0  0  0  0  0  0
    9.0850   -5.0338   16.2636 P   0  0  0  0  0  0  0  0  0  0  0  0
   -0.0209  -10.9217   16.8367 C   0  0  0  0  0  0  0  0  0  0  0  0
   11.1637   -4.8231   21.1668 C   0  0  0  0  0  0  0  0  0  0  0  0
    6.5181   -8.8025   16.0523 C   0  0  0  0  0  0  0  0  0  0  0  0
    6.8983  -10.8691   15.4071 C   0  0  0  0  0  0  0  0  0  0  0  0
   -1.2863  -11.3141   15.7182 N   0  0  0  0  0  0  0  0  0  0  0  0
   -0.4503  -10.7019   13.8926 C   0  0  0  0  0  0  0  0  0  0  0  0
    4.8100   -8.7674   16.3266 C   0  0  0  0  0  0  0  0  0  0  0  0
    3.8640   -8.3583   19.0414 P   0  0  0  0  0  0  0  0  0  0  0  0
   -1.5795  -11.2705   14.1889 C   0  0  0  0  0  0  0  0  0  0  0  0
    1.9851  -10.0827   17.2904 S   0  0  0  0  0  0  0  0  0  0  0  0
   10.1960   -3.0900   17.2848 N   0  0  0  0  0  0  0  0  0  0  0  0
    7.4977   -7.9423   17.9080 C   0  0  0  0  0  0  0  0  0  0  0  0
   10.7787   -8.6705   18.4794 Cl  0  0  0  0  0  0  0  0  0  0  0  0
    9.3428   -5.6252   17.5026 N   0  0  0  0  0  0  0  0  0  0  0  0
   10.7266   -2.7395   20.2096 N   0  0  0  0  0  0  0  0  0  0  0  0
    1.0743  -10.5230   15.5884 C   0  0  0  0  0  0  0  0  0  0  0  0
   10.5118   -4.1409   18.7848 C   0  0  0  0  0  0  0  0  0  0  0  0
    9.5816   -5.4250   19.0497 C   0  0  0  0  0  0  0  0  0  0  0  0
    5.1147   -9.4955   16.5852 C   0  0  0  0  0  0  0  0  0  0  0  0
    9.8093   -4.1866   16.3289 C   0  0  0  0  0  0  0  0  0  0  0  0
    9.2054   -6.8408   17.3289 O   0  0  0  0  0  0  0  0  0  0  0  0
    0.3963   -9.9824   14.2842 C   0  0  0  0  0  0  0  0  0  0  0  0
   10.6992   -3.2145   20.8401 He  0  0  0  0  0  0  0  0  0  0  0  0
    5.4128   -9.8219   15.4375 He  0  0  0  0  0  0  0  0  0  0  0  0
    2.2679   -9.3430   15.5909 He  0  0  0  0  0  0  0  0  0  0  0  0
    8.3878   -7.6815   14.9093 He  0  0  0  0  0  0  0  0  0  0  0  0
    1.2835  -10.6414   18.6841 He  0  0  0  0  0  0  0  0  0  0  0  0
   10.4518   -5.9496   21.1032 He  0  0  0  0  0  0  0  0  0  0  0  0
    4.3825   -8.9640   17.0239 He  0  0  0  0  0  0  0  0  0  0  0  0
  1  5  2  0
  1  7  2  0
  1 10  3  0
  1 12  4  0
  1 16  3  0
  2  6  2  0
  2 10  3  0
  2 16  4  0
  2 19  4  0
  2 22  1  0
  2 26  4  0
  3  6  3  0
  3 10  3  0
  3 14  2  0
  3 16  4  0
  3 17  2  0
  3 19  2  0
  4  6  4  0
  5 13  4  0
  5 16  3  0
  5 21  1  0
  6 10  4  0
  6 13  2  0
  6 15  3  0
  6 17  1  0
  6 18  3  0
  6 20  2  0
  6 21  4  0
  6 24  2  0
  6 26  4  0
  7 23  1  0
  8 22  3  0
  8 23  3  0
  8 24  3  0
  8 25  2  0
  9 10  3  0
  9 11  3  0
  9 16  3  0
  9 21  3  0
  9 24  4  0
  9 27  2  0
 10 14  4  0
 10 17  2  0
 11 14  1  0
 11 15  2  0
 11 17  3  0
 11 18  3  0
 12 13  3  0
 12 14  1  0
 12 15  3  0
 12 23  3  0
 12 25  4  0
 13 16  3  0
 13 18  4  0
 14 20  1  0
 15 25  3  0
 15 26  1  0
 15 27  3  0
 16 17  4  0
 16 22  4  0
 16 25  4  0
 18 19  4  0
 18 21  3  0
 18 22  1  0
 18 23  1  0
 18 25  1  0
 18 26  1  0
 18 27  2  0
 19 24  3  0
 20 26  2  0
 21 27  4  0
 22 23  4  0
 22 24  1  0
 22 27  1  0
 24 27  4  0
M  END
$$$$

 Created by Python create_sdf_string function

 34 33  0  0  0  0  0  0  0  0999 V2000
    4.0274   -9.0699   17.3256 C   0  0  0  0  0  0  0  0  0  0  0  0
   10.9657   -3.4306   21.0878 C   0  0  0  0  0  0  0  0  0  0  0  0
    9.7309   -5.5711   17.9923 C   0  0  0  0  0  0  0  0  0  0  0  0
    2.7754   -8.8702   15.9807 N   0  0  0  0  0  0  0  0  0  0  0  0
    0.1531  -11.1916   17.7663 N   0  0  0  0  0  0  0  0  0  0  0  0
    9.0674   -5.1917   15.9894 N   0  0  0  0  0  0  0  0  0  0  0  0
   -0.1112  -11.0006   16.4275 C   0  0  0  0  0  0  0  0  0  0  0  0
   10.9038   -4.7723   21.3798 C   0  0  0  0  0  0  0  0  0  0  0  0
    7.1367   -8.4490   16.0211 C   0  0  0  0  0  0  0  0  0  0  0  0
    6.3229   -9.7341   15.4986 C   0  0  0  0  0  0  0  0  0  0  0  0
   -1.2357  -11.4886   15.7688 N   0  0  0  0  0  0  0  0  0  0  0  0
    6.0957   -9.7209   15.2537 C   0  0  0  0  0  0  0  0  0  0  0  0
   -0.5624  -10.6347   13.6583 C   0  0  0  0  0  0  0  0  0  0  0  0
    5.6627   -8.4617   16.9457 C   0  0  0  0  0  0  0  0  0  0  0  0
    1.8363   -9.7607   16.3786 C   0  0  0  0  0  0  0  0  0  0  0  0
    4.4828   -8.5374   18.4351 O   0  0  0  0  0  0  0  0  0  0  0  0
   -1.4445  -11.3150   14.4327 C   0  0  0  0  0  0  0  0  0  0  0  0
    2.0515  -10.0436   17.6408 C   0  0  0  0  0  0  0  0  0  0  0  0
   10.2770   -3.4732   17.4159 N   0  0  0  0  0  0  0  0  0  0  0  0
    7.1457   -7.6124   17.6697 C   0  0  0  0  0  0  0  0  0  0  0  0
    9.7125   -7.9456   18.2861 C   0  0  0  0  0  0  0  0  0  0  0  0
    9.3569   -5.8210   17.2574 N   0  0  0  0  0  0  0  0  0  0  0  0
   10.8437   -3.0228   19.9039 N   0  0  0  0  0  0  0  0  0  0  0  0
    0.7546  -10.2781   15.7185 C   0  0  0  0  0  0  0  0  0  0  0  0
    8.4181   -7.7756   15.4827 C   0  0  0  0  0  0  0  0  0  0  0  0
   10.4457   -3.8730   18.8350 C   0  0  0  0  0  0  0  0  0  0  0  0
    1.2373  -10.7483   18.3770 C   0  0  0  0  0  0  0  0  0  0  0  0
   10.1674   -5.1578   19.0962 C   0  0  0  0  0  0  0  0  0  0  0  0
    5.2959   -9.4184   16.3681 C   0  0  0  0  0  0  0  0  0  0  0  0
   10.5420   -5.5429   20.4696 C   0  0  0  0  0  0  0  0  0  0  0  0
    9.7843   -3.8246   16.2583 C   0  0  0  0  0  0  0  0  0  0  0  0
    8.9452   -7.1323   17.2018 C   0  0  0  0  0  0  0  0  0  0  0  0
    4.1819   -8.8474   17.1310 C   0  0  0  0  0  0  0  0  0  0  0  0
    0.5558  -10.1047   14.2810 C   0  0  0  0  0  0  0  0  0  0  0  0
  1 33  1  0
  2  8  4  0
  2 23  4  0
  3 22  4  0
  3 28  4  0
  4 15  1  0
  5  7  4  0
  5 27  4  0
  6 22  4  0
  6 31  4  0
  7 11  4  0
  7 24  4  0
  8 30  4  0
  9 25  1  0
 10 12  4  0
 10 29  4  0
 11 17  4  0
 13 17  4  0
 13 34  4  0
 14 20  4  0
 15 18  4  0
 15 24  4  0
 16 33  1  0
 18 27  4  0
 19 26  4  0
 19 31  4  0
 21 32  1  0
 22 32  1  0
 23 26  4  0
 24 34  4  0
 25 32  1  0
 26 28  4  0
 28 30  4  0
M  END
$$$$

 Created by Python create_sdf_string function

 34 52  0  0  0  0  0  0  0  0999 V2000
    3.8661   -8.0467   17.9477 S   0  0  0  0  0  0  0  0  0  0  0  0
   10.9515   -3.5750   21.5309 P   0  0  0  0  0  0  0  0  0  0  0  0
    9.4105   -7.5337   16.9934 O   0  0  0  0  0  0  0  0  0  0  0  0
    4.3760   -9.2879   16.8421 Cl  0  0  0  0  0  0  0  0  0  0  0  0
    0.1177  -10.9882   16.3626 C   0  0  0  0  0  0  0  0  0  0  0  0
   10.8744   -4.3215   21.7321 C   0  0  0  0  0  0  0  0  0  0  0  0
    6.6946   -8.7731   16.5872 C   0  0  0  0  0  0  0  0  0  0  0  0
   -1.6094  -11.8081   15.9725 C   0  0  0  0  0  0  0  0  0  0  0  0
    6.5556   -9.4666   13.7172 C   0  0  0  0  0  0  0  0  0  0  0  0
   -1.2685  -11.5068   14.4131 C   0  0  0  0  0  0  0  0  0  0  0  0
    9.9828   -3.5418   17.1401 N   0  0  0  0  0  0  0  0  0  0  0  0
   10.8122   -3.2674   19.6279 N   0  0  0  0  0  0  0  0  0  0  0  0
    0.7797  -10.2884   15.8867 C   0  0  0  0  0  0  0  0  0  0  0  0
    8.3229   -7.4711   15.7429 F   0  0  0  0  0  0  0  0  0  0  0  0
   10.3916   -4.0487   18.6992 C   0  0  0  0  0  0  0  0  0  0  0  0
    1.2268  -10.5720   18.9655 C   0  0  0  0  0  0  0  0  0  0  0  0
    9.9294   -5.2718   19.3573 C   0  0  0  0  0  0  0  0  0  0  0  0
    5.4477   -9.6528   17.5142 C   0  0  0  0  0  0  0  0  0  0  0  0
    9.7714   -4.8316   20.9718 I   0  0  0  0  0  0  0  0  0  0  0  0
    9.8485   -3.8521   16.5232 C   0  0  0  0  0  0  0  0  0  0  0  0
    9.0012   -8.0740   17.3820 N   0  0  0  0  0  0  0  0  0  0  0  0
   -0.0668  -10.4530   14.7460 C   0  0  0  0  0  0  0  0  0  0  0  0
   -0.0669  -10.7208   17.4323 He  0  0  0  0  0  0  0  0  0  0  0  0
    9.0350   -4.6246   14.7372 He  0  0  0  0  0  0  0  0  0  0  0  0
    5.9269   -9.7043   16.2460 He  0  0  0  0  0  0  0  0  0  0  0  0
   -0.7912  -10.8756   13.4795 He  0  0  0  0  0  0  0  0  0  0  0  0
    4.6881   -9.5653   17.9198 He  0  0  0  0  0  0  0  0  0  0  0  0
    0.7285   -9.9584   16.0656 He  0  0  0  0  0  0  0  0  0  0  0  0
    4.2306   -8.4382   18.3897 He  0  0  0  0  0  0  0  0  0  0  0  0
    0.6894  -12.2027   18.2600 He  0  0  0  0  0  0  0  0  0  0  0  0
    7.0751   -7.0105   17.4915 He  0  0  0  0  0  0  0  0  0  0  0  0
    9.3969   -8.2592   19.3854 He  0  0  0  0  0  0  0  0  0  0  0  0
    9.7264   -5.6014   16.9785 He  0  0  0  0  0  0  0  0  0  0  0  0
    4.9318   -9.0305   17.7590 He  0  0  0  0  0  0  0  0  0  0  0  0
  1  2  4  0
  1  6  1  0
  1  9  3  0
  1 10  4  0
  2 11  1  0
  2 12  4  0
  2 18  4  0
  3  4  4  0
  3  5  1  0
  3  9  3  0
  3 14  1  0
  4  8  3  0
  4 14  2  0
  4 16  4  0
  4 22  4  0
  5 13  4  0
  6  7  4  0
  6  9  3  0
  6 15  4  0
  6 17  3  0
  7  8  2  0
  7  9  4  0
  7 11  3  0
  7 14  3  0
  7 18  1  0
  7 19  3  0
  7 21  1  0
  7 22  1  0
  8  9  3  0
  8 10  4  0
  8 15  2  0
  8 19  3  0
  8 21  2  0
  9 10  4  0
  9 16  4  0
  9 19  4  0
 10 19  3  0
 11 12  2  0
 11 15  4  0
 12 15  4  0
 12 17  2  0
 13 16  4  0
 13 21  4  0
 13 22  4  0
 14 21  3  0
 15 17  4  0
 16 21  1  0
 17 18  2  0
 17 19  2  0
 18 19  1  0
 18 22  3  0
 19 22  4  0
M  END
$$$$

 Created by Python create_sdf_string function

 34 32  0  0  0  0  0  0  0  0999 V2000
    3.6532   -8.3434   17.2126 C   0  0  0  0  0  0  0  0  0  0  0  0
   10.9806   -3.4669   20.9452 C   0  0  0  0  0  0  0  0  0  0  0  0
    8.9340   -6.6156   16.8182 C   0  0  0  0  0  0  0  0  0  0  0  0
    3.6882   -9.2817   16.6549 C   0  0  0  0  0  0  0  0  0  0  0  0
    0.0787  -11.1031   17.8212 N   0  0  0  0  0  0  0  0  0  0  0  0
    9.0877   -4.7781   15.7463 O   0  0  0  0  0  0  0  0  0  0  0  0
   -0.1803  -11.0460   16.5254 C   0  0  0  0  0  0  0  0  0  0  0  0
   10.6697   -4.7012   21.2304 C   0  0  0  0  0  0  0  0  0  0  0  0
    7.2651   -8.5144   16.7454 C   0  0  0  0  0  0  0  0  0  0  0  0
    6.1538   -9.4330   15.8784 C   0  0  0  0  0  0  0  0  0  0  0  0
   -1.2882  -11.7777   15.8899 C   0  0  0  0  0  0  0  0  0  0  0  0
    6.9281   -9.5668   14.8651 C   0  0  0  0  0  0  0  0  0  0  0  0
   -0.6292  -10.8762   13.7928 C   0  0  0  0  0  0  0  0  0  0  0  0
    4.5851   -9.7366   17.7584 C   0  0  0  0  0  0  0  0  0  0  0  0
    1.5524   -9.7352   16.5673 C   0  0  0  0  0  0  0  0  0  0  0  0
    4.0769   -8.4109   17.5929 C   0  0  0  0  0  0  0  0  0  0  0  0
   -1.4418  -11.6439   14.5527 C   0  0  0  0  0  0  0  0  0  0  0  0
    0.9639  -11.5127   18.4765 C   0  0  0  0  0  0  0  0  0  0  0  0
   10.3115   -3.5552   17.3457 N   0  0  0  0  0  0  0  0  0  0  0  0
    7.5174   -7.1599   17.7227 C   0  0  0  0  0  0  0  0  0  0  0  0
    9.4194   -7.7704   18.3625 C   0  0  0  0  0  0  0  0  0  0  0  0
    9.4683   -5.8981   17.7117 C   0  0  0  0  0  0  0  0  0  0  0  0
   10.9172   -3.1046   19.6595 N   0  0  0  0  0  0  0  0  0  0  0  0
    0.5832  -10.2914   15.8058 C   0  0  0  0  0  0  0  0  0  0  0  0
    8.4382   -7.5470   15.7288 C   0  0  0  0  0  0  0  0  0  0  0  0
   10.4090   -3.8961   18.6219 C   0  0  0  0  0  0  0  0  0  0  0  0
    1.3858  -10.7763   18.1321 C   0  0  0  0  0  0  0  0  0  0  0  0
   10.0803   -5.1257   18.8488 C   0  0  0  0  0  0  0  0  0  0  0  0
    5.8433   -9.2252   17.2661 C   0  0  0  0  0  0  0  0  0  0  0  0
   10.2968   -5.5651   20.2652 C   0  0  0  0  0  0  0  0  0  0  0  0
    9.7330   -4.1069   16.4024 C   0  0  0  0  0  0  0  0  0  0  0  0
    8.4560   -7.8831   17.5844 N   0  0  0  0  0  0  0  0  0  0  0  0
    5.0486   -9.0960   17.8039 C   0  0  0  0  0  0  0  0  0  0  0  0
    0.3411  -10.1817   14.4059 C   0  0  0  0  0  0  0  0  0  0  0  0
  1 16  4  0
  2  8  4  0
  2 23  4  0
  3 22  4  0
  3 25  1  0
  5  7  4  0
  5 18  4  0
  6 31  4  0
  7 11  4  0
  7 24  4  0
  8 30  4  0
  9 29  1  0
  9 32  1  0
 10 12  1  0
 11 17  4  0
 13 17  4  0
 13 34  4  0
 14 33  4  0
 15 24  4  0
 15 27  4  0
 16 33  1  0
 18 27  4  0
 19 26  4  0
 19 31  4  0
 21 22  1  0
 21 32  1  0
 22 28  4  0
 23 26  4  0
 24 34  4  0
 26 28  4  0
 28 30  4  0
 29 33  1  0
M  END
$$$$

 Created by Python create_sdf_string function

 34 55  0  0  0  0  0  0  0  0999 V2000
    3.5474   -7.2943   17.3582 C   0  0  0  0  0  0  0  0  0  0  0  0
   10.9808   -3.3029   21.0586 C   0  0  0  0  0  0  0  0  0  0  0  0
    8.4514   -6.6999   16.7018 C   0  0  0  0  0  0  0  0  0  0  0  0
    0.1738  -11.0265   15.9189 Cl  0  0  0  0  0  0  0  0  0  0  0  0
   10.7886   -4.8396   21.5718 C   0  0  0  0  0  0  0  0  0  0  0  0
   -1.1463  -11.4492   15.9384 C   0  0  0  0  0  0  0  0  0  0  0  0
   -0.2110  -10.8466   13.5217 C   0  0  0  0  0  0  0  0  0  0  0  0
    4.8246  -10.6859   16.8771 O   0  0  0  0  0  0  0  0  0  0  0  0
    2.2406  -10.3955   18.0129 C   0  0  0  0  0  0  0  0  0  0  0  0
    3.9133   -9.7398   17.3955 C   0  0  0  0  0  0  0  0  0  0  0  0
   -1.0229  -11.3932   14.9612 C   0  0  0  0  0  0  0  0  0  0  0  0
    0.9745  -11.1278   19.1397 P   0  0  0  0  0  0  0  0  0  0  0  0
    7.6795   -6.9129   17.7387 C   0  0  0  0  0  0  0  0  0  0  0  0
    9.5369   -5.3282   17.6306 C   0  0  0  0  0  0  0  0  0  0  0  0
   10.9098   -3.3550   19.7870 N   0  0  0  0  0  0  0  0  0  0  0  0
    8.8606   -6.9131   15.6598 C   0  0  0  0  0  0  0  0  0  0  0  0
   10.3117   -3.9665   18.9367 C   0  0  0  0  0  0  0  0  0  0  0  0
   10.1907   -4.8293   18.6592 C   0  0  0  0  0  0  0  0  0  0  0  0
    6.4639   -8.5485   17.4715 C   0  0  0  0  0  0  0  0  0  0  0  0
    8.9870   -7.4756   17.4745 O   0  0  0  0  0  0  0  0  0  0  0  0
    0.8076   -9.8480   14.4184 C   0  0  0  0  0  0  0  0  0  0  0  0
    3.3764   -9.7537   16.2300 He  0  0  0  0  0  0  0  0  0  0  0  0
    0.2703  -10.9133   17.8745 He  0  0  0  0  0  0  0  0  0  0  0  0
    7.6115   -5.0163   15.5134 He  0  0  0  0  0  0  0  0  0  0  0  0
    6.9822   -8.9172   16.3022 He  0  0  0  0  0  0  0  0  0  0  0  0
    5.5850  -11.2164   16.2677 He  0  0  0  0  0  0  0  0  0  0  0  0
    8.5003   -9.5678   15.8462 He  0  0  0  0  0  0  0  0  0  0  0  0
   10.3037   -3.4432   17.4946 He  0  0  0  0  0  0  0  0  0  0  0  0
   10.2021   -8.9407   18.0766 He  0  0  0  0  0  0  0  0  0  0  0  0
    0.6315   -9.9360   15.8680 He  0  0  0  0  0  0  0  0  0  0  0  0
    1.4279  -10.9927   18.0737 He  0  0  0  0  0  0  0  0  0  0  0  0
    9.4480   -5.5832   20.5118 He  0  0  0  0  0  0  0  0  0  0  0  0
    9.7887   -4.5568   16.1020 He  0  0  0  0  0  0  0  0  0  0  0  0
    4.8126  -10.0561   17.4549 He  0  0  0  0  0  0  0  0  0  0  0  0
  1  2  3  0
  1  4  4  0
  1 13  2  0
  1 16  2  0
  1 20  1  0
  2  4  1  0
  2  5  4  0
  2 15  4  0
  2 16  4  0
  2 17  1  0
  2 20  1  0
  2 21  2  0
  3  4  2  0
  3  5  2  0
  3  8  1  0
  3 10  2  0
  3 11  1  0
  3 13  4  0
  3 16  1  0
  3 18  4  0
  3 21  2  0
  4  6  4  0
  4 12  3  0
  4 15  3  0
  5 18  4  0
  6  7  4  0
  6  9  1  0
  6 12  4  0
  7 11  4  0
  7 17  3  0
  7 19  3  0
  7 21  4  0
  8 13  4  0
  8 16  1  0
  8 19  3  0
  8 20  1  0
  9 10  2  0
  9 11  4  0
  9 15  4  0
  9 17  1  0
  9 18  4  0
  9 20  1  0
 10 12  3  0
 10 17  4  0
 10 20  1  0
 11 15  3  0
 11 19  3  0
 11 20  1  0
 12 20  2  0
 13 19  1  0
 14 18  4  0
 15 17  4  0
 17 18  4  0
 18 20  3  0
 19 21  3  0
M  END
$$$$

 Created by Python create_sdf_string function

 34 36  0  0  0  0  0  0  0  0999 V2000
    4.0184   -8.3650   17.0122 C   0  0  0  0  0  0  0  0  0  0  0  0
   11.0050   -3.5410   20.9566 C   0  0  0  0  0  0  0  0  0  0  0  0
    8.7301   -6.6086   16.8872 C   0  0  0  0  0  0  0  0  0  0  0  0
    2.5465   -9.2516   16.2485 N   0  0  0  0  0  0  0  0  0  0  0  0
    0.2304  -11.0594   17.8803 N   0  0  0  0  0  0  0  0  0  0  0  0
    8.3114   -4.7053   15.5902 O   0  0  0  0  0  0  0  0  0  0  0  0
    0.0166  -10.9411   16.4858 C   0  0  0  0  0  0  0  0  0  0  0  0
   10.6799   -4.8696   21.1950 C   0  0  0  0  0  0  0  0  0  0  0  0
    6.8436   -9.0010   16.5332 C   0  0  0  0  0  0  0  0  0  0  0  0
    6.0876  -10.3384   16.2762 C   0  0  0  0  0  0  0  0  0  0  0  0
   -0.9975  -11.5246   15.8287 C   0  0  0  0  0  0  0  0  0  0  0  0
    7.9577   -8.6056   15.7250 C   0  0  0  0  0  0  0  0  0  0  0  0
   -0.2255  -10.6659   13.7239 C   0  0  0  0  0  0  0  0  0  0  0  0
    5.2883  -10.5275   17.1200 O   0  0  0  0  0  0  0  0  0  0  0  0
    2.4132  -10.1703   17.6993 C   0  0  0  0  0  0  0  0  0  0  0  0
    3.4675   -9.6605   17.3596 C   0  0  0  0  0  0  0  0  0  0  0  0
   -1.0762  -11.3621   14.4486 C   0  0  0  0  0  0  0  0  0  0  0  0
    1.1730  -11.2311   19.3343 N   0  0  0  0  0  0  0  0  0  0  0  0
   10.3112   -3.5541   17.2570 N   0  0  0  0  0  0  0  0  0  0  0  0
    7.2834   -7.0763   17.8857 C   0  0  0  0  0  0  0  0  0  0  0  0
    9.5486   -8.0368   17.9400 C   0  0  0  0  0  0  0  0  0  0  0  0
    9.5011   -5.7664   17.7306 C   0  0  0  0  0  0  0  0  0  0  0  0
   10.9370   -3.0533   19.6696 N   0  0  0  0  0  0  0  0  0  0  0  0
    0.9052  -10.2049   15.7255 C   0  0  0  0  0  0  0  0  0  0  0  0
    8.4658   -7.2735   15.6160 C   0  0  0  0  0  0  0  0  0  0  0  0
   10.4777   -3.8637   18.6243 C   0  0  0  0  0  0  0  0  0  0  0  0
    1.3771  -10.7567   18.2810 C   0  0  0  0  0  0  0  0  0  0  0  0
   10.0570   -5.1119   18.8974 C   0  0  0  0  0  0  0  0  0  0  0  0
    6.5774   -8.2643   17.4857 C   0  0  0  0  0  0  0  0  0  0  0  0
   10.2210   -5.6216   20.1702 C   0  0  0  0  0  0  0  0  0  0  0  0
    9.5776   -4.2767   16.3894 C   0  0  0  0  0  0  0  0  0  0  0  0
    8.7814   -7.5014   17.7178 C   0  0  0  0  0  0  0  0  0  0  0  0
    4.5585   -9.4077   17.2506 C   0  0  0  0  0  0  0  0  0  0  0  0
    0.7747  -10.0156   14.4270 C   0  0  0  0  0  0  0  0  0  0  0  0
  1 33  4  0
  2  8  4  0
  2 23  4  0
  3 20  1  0
  3 22  1  0
  3 25  1  0
  4 24  4  0
  5  7  4  0
  5 27  4  0
  6 31  2  0
  7 11  4  0
  7 24  4  0
  8 30  4  0
  9 10  4  0
  9 12  1  0
  9 29  4  0
 10 14  4  0
 11 17  4  0
 12 25  1  0
 13 17  4  0
 13 34  4  0
 14 33  4  0
 15 16  4  0
 15 27  4  0
 16 33  1  0
 18 27  4  0
 19 26  4  0
 19 31  4  0
 20 29  1  0
 20 32  1  0
 21 32  1  0
 22 28  1  0
 23 26  4  0
 24 34  4  0
 26 28  4  0
 28 30  4  0
M  END
$$$$

 Created by Python create_sdf_string function

 34 69  0  0  0  0  0  0  0  0999 V2000
   11.1637   -3.9715   21.1922 F   0  0  0  0  0  0  0  0  0  0  0  0
    8.2250   -6.2118   17.6975 C   0  0  0  0  0  0  0  0  0  0  0  0
    1.4694   -8.5818   14.6156 N   0  0  0  0  0  0  0  0  0  0  0  0
    0.1148  -10.8428   17.6127 N   0  0  0  0  0  0  0  0  0  0  0  0
    6.6281   -4.2211   15.5958 O   0  0  0  0  0  0  0  0  0  0  0  0
    0.4429  -10.8759   16.8285 C   0  0  0  0  0  0  0  0  0  0  0  0
   11.0562   -5.0540   20.9258 C   0  0  0  0  0  0  0  0  0  0  0  0
    7.4204   -9.6285   17.0374 C   0  0  0  0  0  0  0  0  0  0  0  0
   -0.7397  -11.3449   16.2397 C   0  0  0  0  0  0  0  0  0  0  0  0
    7.9414   -7.9223   15.2954 C   0  0  0  0  0  0  0  0  0  0  0  0
   -0.1647  -10.8244   14.0192 C   0  0  0  0  0  0  0  0  0  0  0  0
    5.6716  -10.9147   17.7654 O   0  0  0  0  0  0  0  0  0  0  0  0
    1.6836  -10.2075   19.6907 C   0  0  0  0  0  0  0  0  0  0  0  0
    3.7304  -10.3273   17.9732 C   0  0  0  0  0  0  0  0  0  0  0  0
   -1.1068  -11.6992   14.3691 Cl  0  0  0  0  0  0  0  0  0  0  0  0
    1.0829  -11.1979   21.0260 C   0  0  0  0  0  0  0  0  0  0  0  0
   10.5497   -3.3428   17.0785 N   0  0  0  0  0  0  0  0  0  0  0  0
    9.7385   -7.6704   17.8780 N   0  0  0  0  0  0  0  0  0  0  0  0
    9.4195   -5.7042   17.7735 C   0  0  0  0  0  0  0  0  0  0  0  0
   10.8878   -2.7162   19.5806 N   0  0  0  0  0  0  0  0  0  0  0  0
    0.8560   -9.8422   16.1093 C   0  0  0  0  0  0  0  0  0  0  0  0
    8.2980   -7.2832   16.1949 C   0  0  0  0  0  0  0  0  0  0  0  0
   10.2212   -3.8102   18.5993 S   0  0  0  0  0  0  0  0  0  0  0  0
   10.0037   -5.1143   18.5599 C   0  0  0  0  0  0  0  0  0  0  0  0
    9.5729   -4.2467   16.4500 C   0  0  0  0  0  0  0  0  0  0  0  0
    3.9239  -10.5073   16.6794 Br  0  0  0  0  0  0  0  0  0  0  0  0
    1.1112  -10.4637   14.9213 C   0  0  0  0  0  0  0  0  0  0  0  0
    4.8675   -8.1803   18.1093 He  0  0  0  0  0  0  0  0  0  0  0  0
    6.1504  -10.1954   15.0281 He  0  0  0  0  0  0  0  0  0  0  0  0
    7.3343   -7.0478   17.8230 He  0  0  0  0  0  0  0  0  0  0  0  0
    1.6076  -10.5074   17.7393 He  0  0  0  0  0  0  0  0  0  0  0  0
    6.9851   -8.1039   18.1259 He  0  0  0  0  0  0  0  0  0  0  0  0
   10.5484   -6.0925   20.4158 He  0  0  0  0  0  0  0  0  0  0  0  0
    9.1717   -7.6320   17.9681 He  0  0  0  0  0  0  0  0  0  0  0  0
  1  7  3  0
  1 13  4  0
  1 20  4  0
  1 23  4  0
  2  5  3  0
  2  8  3  0
  2 11  1  0
  2 16  4  0
  2 19  1  0
  2 22  2  0
  2 24  1  0
  2 25  2  0
  3  8  4  0
  3 11  4  0
  3 20  4  0
  3 21  4  0
  4  6  4  0
  4 14  2  0
  5  9  1  0
  5 10  3  0
  5 12  3  0
  5 15  3  0
  5 16  3  0
  5 18  4  0
  6 12  4  0
  6 21  4  0
  7  8  4  0
  7 10  4  0
  7 18  2  0
  7 25  3  0
  8 11  4  0
  8 14  3  0
  8 19  1  0
  8 20  4  0
  8 23  1  0
  8 24  1  0
  9 14  2  0
  9 16  4  0
  9 17  4  0
  9 26  3  0
 10 12  1  0
 10 14  3  0
 10 15  2  0
 11 15  4  0
 11 26  2  0
 11 27  4  0
 12 17  4  0
 12 18  3  0
 12 24  2  0
 13 14  4  0
 13 25  1  0
 14 15  4  0
 14 17  1  0
 14 24  2  0
 14 25  1  0
 14 26  1  0
 15 18  3  0
 16 24  3  0
 17 23  4  0
 17 25  4  0
 17 26  2  0
 18 23  4  0
 19 24  1  0
 20 23  4  0
 20 26  1  0
 21 24  1  0
 21 27  4  0
 23 24  4  0
 25 26  3  0
M  END
$$$$

 Created by Python create_sdf_string function

 34 35  0  0  0  0  0  0  0  0999 V2000
    5.2251   -8.5029   17.7803 C   0  0  0  0  0  0  0  0  0  0  0  0
   11.2061   -3.6910   20.8838 C   0  0  0  0  0  0  0  0  0  0  0  0
    8.8051   -5.4836   16.6865 C   0  0  0  0  0  0  0  0  0  0  0  0
    2.1996   -9.3459   15.9746 N   0  0  0  0  0  0  0  0  0  0  0  0
    0.4165  -10.9828   17.9535 N   0  0  0  0  0  0  0  0  0  0  0  0
    7.6063   -5.3300   15.4647 O   0  0  0  0  0  0  0  0  0  0  0  0
    0.2239  -10.8710   16.6928 C   0  0  0  0  0  0  0  0  0  0  0  0
   10.9338   -5.0264   21.1014 C   0  0  0  0  0  0  0  0  0  0  0  0
    6.7462   -9.1947   16.2632 C   0  0  0  0  0  0  0  0  0  0  0  0
    6.0957   -9.9503   16.0661 C   0  0  0  0  0  0  0  0  0  0  0  0
   -0.7751  -11.5821   15.9576 C   0  0  0  0  0  0  0  0  0  0  0  0
    7.6957   -8.3007   15.7150 C   0  0  0  0  0  0  0  0  0  0  0  0
   -0.2152  -10.7122   13.9349 C   0  0  0  0  0  0  0  0  0  0  0  0
    5.2988  -10.5218   17.1106 O   0  0  0  0  0  0  0  0  0  0  0  0
    2.5679  -11.1011   19.0304 C   0  0  0  0  0  0  0  0  0  0  0  0
    2.7599  -10.2723   17.8306 C   0  0  0  0  0  0  0  0  0  0  0  0
   -0.9735  -11.4821   14.6525 C   0  0  0  0  0  0  0  0  0  0  0  0
    1.4262  -11.3257   19.9078 C   0  0  0  0  0  0  0  0  0  0  0  0
   10.2274   -3.3824   17.3602 N   0  0  0  0  0  0  0  0  0  0  0  0
    7.0774   -7.2492   17.6401 C   0  0  0  0  0  0  0  0  0  0  0  0
    9.4401   -7.5870   17.9475 N   0  0  0  0  0  0  0  0  0  0  0  0
    9.4914   -5.7580   17.7871 C   0  0  0  0  0  0  0  0  0  0  0  0
   11.0303   -3.0595   19.6824 N   0  0  0  0  0  0  0  0  0  0  0  0
    1.1461  -10.0774   15.8834 C   0  0  0  0  0  0  0  0  0  0  0  0
    8.1337   -7.3702   16.3374 C   0  0  0  0  0  0  0  0  0  0  0  0
   10.4958   -3.8217   18.6393 C   0  0  0  0  0  0  0  0  0  0  0  0
    1.6427  -10.6132   18.2977 C   0  0  0  0  0  0  0  0  0  0  0  0
   10.1504   -5.0747   18.8496 C   0  0  0  0  0  0  0  0  0  0  0  0
    6.3667   -8.1047   17.5916 C   0  0  0  0  0  0  0  0  0  0  0  0
   10.4231   -5.7423   20.1030 C   0  0  0  0  0  0  0  0  0  0  0  0
    9.4921   -3.9985   16.4417 C   0  0  0  0  0  0  0  0  0  0  0  0
    8.9409   -7.4691   17.6521 C   0  0  0  0  0  0  0  0  0  0  0  0
    3.9555   -9.8840   17.2853 C   0  0  0  0  0  0  0  0  0  0  0  0
    0.8992   -9.8813   14.6252 C   0  0  0  0  0  0  0  0  0  0  0  0
  1 29  4  0
  1 33  4  0
  2  8  4  0
  2 23  4  0
  3  6  2  0
  3 22  4  0
  3 31  4  0
  4 24  4  0
  5  7  4  0
  5 27  4  0
  7 11  4  0
  7 24  4  0
  8 30  4  0
  9 10  4  0
  9 12  1  0
 10 14  4  0
 11 17  4  0
 12 25  1  0
 13 17  4  0
 13 34  4  0
 14 33  1  0
 15 16  4  0
 15 18  4  0
 16 27  4  0
 16 33  1  0
 19 26  4  0
 19 31  4  0
 20 29  1  0
 21 32  1  0
 22 28  4  0
 23 26  4  0
 24 34  4  0
 25 32  1  0
 26 28  4  0
 28 30  4  0
M  END
$$$$

 Created by Python create_sdf_string function

 34 79  0  0  0  0  0  0  0  0999 V2000
    4.8582   -8.5597   17.4736 F   0  0  0  0  0  0  0  0  0  0  0  0
   10.5445   -3.5673   21.1813 C   0  0  0  0  0  0  0  0  0  0  0  0
    1.1944   -9.4679   16.6273 P   0  0  0  0  0  0  0  0  0  0  0  0
    0.9019  -11.0005   18.2949 N   0  0  0  0  0  0  0  0  0  0  0  0
    6.9561   -4.5615   15.0407 O   0  0  0  0  0  0  0  0  0  0  0  0
    0.2053  -11.0961   16.7483 C   0  0  0  0  0  0  0  0  0  0  0  0
   11.0972   -4.9256   21.4174 C   0  0  0  0  0  0  0  0  0  0  0  0
    6.6908   -8.4245   16.4676 C   0  0  0  0  0  0  0  0  0  0  0  0
   -0.6248  -11.4301   16.0917 C   0  0  0  0  0  0  0  0  0  0  0  0
    6.7119   -7.8078   15.5363 C   0  0  0  0  0  0  0  0  0  0  0  0
   -0.4457  -10.5952   13.7615 C   0  0  0  0  0  0  0  0  0  0  0  0
    4.5281  -11.4506   16.7254 P   0  0  0  0  0  0  0  0  0  0  0  0
    3.8241  -12.0269   18.9572 F   0  0  0  0  0  0  0  0  0  0  0  0
    2.2190  -10.2499   18.1427 N   0  0  0  0  0  0  0  0  0  0  0  0
    2.9246  -11.8694   20.0736 C   0  0  0  0  0  0  0  0  0  0  0  0
   10.6104   -7.7646   17.8597 C   0  0  0  0  0  0  0  0  0  0  0  0
    9.4294   -5.6204   17.6480 C   0  0  0  0  0  0  0  0  0  0  0  0
   10.7603   -2.7534   19.5497 N   0  0  0  0  0  0  0  0  0  0  0  0
    1.0597   -9.8292   15.6960 P   0  0  0  0  0  0  0  0  0  0  0  0
    8.4869   -7.2668   16.5328 C   0  0  0  0  0  0  0  0  0  0  0  0
   10.2818   -3.7196   18.5080 C   0  0  0  0  0  0  0  0  0  0  0  0
    1.0779  -10.6392   18.5006 C   0  0  0  0  0  0  0  0  0  0  0  0
    9.3608   -4.3270   16.0169 C   0  0  0  0  0  0  0  0  0  0  0  0
    5.0865  -10.1822   17.8161 C   0  0  0  0  0  0  0  0  0  0  0  0
    0.6239  -10.1223   15.1346 C   0  0  0  0  0  0  0  0  0  0  0  0
    7.9053   -5.7784   17.5998 He  0  0  0  0  0  0  0  0  0  0  0  0
    6.7567   -9.8555   16.6452 He  0  0  0  0  0  0  0  0  0  0  0  0
   -1.1490  -12.1686   14.6807 He  0  0  0  0  0  0  0  0  0  0  0  0
   10.4498   -3.7143   17.3073 He  0  0  0  0  0  0  0  0  0  0  0  0
    7.4030   -7.2422   17.3912 He  0  0  0  0  0  0  0  0  0  0  0  0
   10.0803   -5.1399   18.8328 He  0  0  0  0  0  0  0  0  0  0  0  0
    6.2520   -8.3274   17.2430 He  0  0  0  0  0  0  0  0  0  0  0  0
   10.8184   -6.0254   19.6957 He  0  0  0  0  0  0  0  0  0  0  0  0
   10.2283   -6.9025   18.0399 He  0  0  0  0  0  0  0  0  0  0  0  0
  1  3  4  0
  1  6  4  0
  1  7  1  0
  1  8  3  0
  1  9  3  0
  1 10  4  0
  1 16  3  0
  1 19  3  0
  1 22  3  0
  1 25  1  0
  2  6  1  0
  2  7  4  0
  2 17  4  0
  2 18  4  0
  2 19  1  0
  2 24  3  0
  3  5  2  0
  3  8  4  0
  3 16  2  0
  3 25  4  0
  4  5  3  0
  4  6  4  0
  4 10  2  0
  4 13  3  0
  5 13  3  0
  5 18  2  0
  5 24  2  0
  5 25  3  0
  6  9  4  0
  6 10  3  0
  6 14  2  0
  6 15  2  0
  7  8  1  0
  7 12  4  0
  7 13  4  0
  7 15  3  0
  7 24  4  0
  8 10  1  0
  9 12  3  0
  9 18  2  0
  9 21  1  0
 10 17  1  0
 10 18  3  0
 10 20  1  0
 10 25  4  0
 11 15  1  0
 11 18  1  0
 11 25  4  0
 12 13  4  0
 12 18  2  0
 12 23  4  0
 12 24  1  0
 13 15  4  0
 13 18  3  0
 13 21  2  0
 13 22  2  0
 13 23  2  0
 13 24  2  0
 13 25  3  0
 14 15  2  0
 14 20  2  0
 14 22  1  0
 14 24  1  0
 15 17  3  0
 15 21  3  0
 15 22  1  0
 15 25  4  0
 16 18  3  0
 16 22  2  0
 16 23  1  0
 16 24  2  0
 18 21  4  0
 18 24  3  0
 19 23  4  0
 19 24  3  0
 19 25  4  0
 21 23  3  0
 22 24  1  0
 23 24  3  0
M  END
$$$$

 Created by Python create_sdf_string function

 34 34  0  0  0  0  0  0  0  0999 V2000
    4.6184   -8.5119   17.2988 C   0  0  0  0  0  0  0  0  0  0  0  0
   10.9917   -3.5452   20.8929 C   0  0  0  0  0  0  0  0  0  0  0  0
    8.5611   -5.6669   16.5892 C   0  0  0  0  0  0  0  0  0  0  0  0
    2.3643   -9.7989   17.0271 C   0  0  0  0  0  0  0  0  0  0  0  0
    0.5497  -11.1862   18.0543 N   0  0  0  0  0  0  0  0  0  0  0  0
    7.3843   -5.4982   15.4047 O   0  0  0  0  0  0  0  0  0  0  0  0
    0.2050  -10.9559   16.7518 C   0  0  0  0  0  0  0  0  0  0  0  0
   10.8815   -4.9215   21.1069 C   0  0  0  0  0  0  0  0  0  0  0  0
    6.6917   -8.3601   16.2460 C   0  0  0  0  0  0  0  0  0  0  0  0
    6.3795   -9.7253   16.5944 C   0  0  0  0  0  0  0  0  0  0  0  0
   -0.7636  -11.7364   16.1103 C   0  0  0  0  0  0  0  0  0  0  0  0
    7.2113   -7.8252   15.7381 C   0  0  0  0  0  0  0  0  0  0  0  0
   -0.3876  -10.7175   14.0605 C   0  0  0  0  0  0  0  0  0  0  0  0
    5.0783  -10.7321   17.4218 C   0  0  0  0  0  0  0  0  0  0  0  0
    3.6414  -11.5695   19.0140 N   0  0  0  0  0  0  0  0  0  0  0  0
    2.7542  -10.3213   17.8307 N   0  0  0  0  0  0  0  0  0  0  0  0
   -1.0145  -11.5981   14.8050 C   0  0  0  0  0  0  0  0  0  0  0  0
    2.4729  -11.6880   19.4525 C   0  0  0  0  0  0  0  0  0  0  0  0
   10.1361   -3.4270   17.3168 N   0  0  0  0  0  0  0  0  0  0  0  0
    7.2527   -7.0864   17.7696 C   0  0  0  0  0  0  0  0  0  0  0  0
    9.8497   -8.0147   18.1693 C   0  0  0  0  0  0  0  0  0  0  0  0
    9.4636   -5.6596   17.5800 C   0  0  0  0  0  0  0  0  0  0  0  0
   10.8400   -3.0200   19.6688 N   0  0  0  0  0  0  0  0  0  0  0  0
    0.9500  -10.1125   16.0417 C   0  0  0  0  0  0  0  0  0  0  0  0
    8.3678   -7.5417   16.5200 C   0  0  0  0  0  0  0  0  0  0  0  0
   10.3966   -3.8055   18.5874 C   0  0  0  0  0  0  0  0  0  0  0  0
    1.6222  -11.1291   18.5633 C   0  0  0  0  0  0  0  0  0  0  0  0
   10.1244   -5.0725   18.7639 C   0  0  0  0  0  0  0  0  0  0  0  0
    5.9755   -8.3713   17.3012 C   0  0  0  0  0  0  0  0  0  0  0  0
   10.4750   -5.6892   20.0851 C   0  0  0  0  0  0  0  0  0  0  0  0
    9.4484   -4.0761   16.4447 C   0  0  0  0  0  0  0  0  0  0  0  0
    9.1933   -7.5230   17.6653 C   0  0  0  0  0  0  0  0  0  0  0  0
    4.1559   -9.9657   17.5895 C   0  0  0  0  0  0  0  0  0  0  0  0
    0.5091   -9.9342   14.5700 C   0  0  0  0  0  0  0  0  0  0  0  0
  1 29  1  0
  1 33  4  0
  2  8  4  0
  2 23  4  0
  3  6  2  0
  3 22  4  0
  4 16  4  0
  4 24  4  0
  5  7  4  0
  5 27  4  0
  7 11  4  0
  7 24  4  0
  8 30  4  0
  9 12  1  0
 10 14  1  0
 10 29  1  0
 11 17  4  0
 12 25  1  0
 13 17  4  0
 13 34  4  0
 14 33  1  0
 15 18  4  0
 16 27  4  0
 16 33  1  0
 18 27  4  0
 19 26  4  0
 19 31  4  0
 21 32  1  0
 22 28  4  0
 23 26  4  0
 24 34  4  0
 25 32  1  0
 26 28  4  0
 28 30  4  0
M  END
$$$$

 Created by Python create_sdf_string function

 34 89  0  0  0  0  0  0  0  0999 V2000
    4.0016   -7.8387   16.0587 N   0  0  0  0  0  0  0  0  0  0  0  0
   11.0203   -3.3823   20.8461 C   0  0  0  0  0  0  0  0  0  0  0  0
    8.8052   -6.8518   16.8588 C   0  0  0  0  0  0  0  0  0  0  0  0
    0.8138  -11.3361   17.6291 N   0  0  0  0  0  0  0  0  0  0  0  0
    0.4724  -10.7431   16.6344 Cl  0  0  0  0  0  0  0  0  0  0  0  0
   10.6856   -4.8934   21.4078 C   0  0  0  0  0  0  0  0  0  0  0  0
    7.3814   -8.1065   16.6556 C   0  0  0  0  0  0  0  0  0  0  0  0
    6.9529  -10.2606   16.4193 N   0  0  0  0  0  0  0  0  0  0  0  0
   -1.1006  -12.1218   16.3530 C   0  0  0  0  0  0  0  0  0  0  0  0
   -0.4417  -10.7872   13.9421 C   0  0  0  0  0  0  0  0  0  0  0  0
    4.0630  -11.1143   18.0699 N   0  0  0  0  0  0  0  0  0  0  0  0
    4.1085  -11.0721   20.2227 C   0  0  0  0  0  0  0  0  0  0  0  0
    2.1121  -10.2631   17.8608 N   0  0  0  0  0  0  0  0  0  0  0  0
   -0.9391  -11.4003   15.5130 C   0  0  0  0  0  0  0  0  0  0  0  0
    0.8970  -11.5642   19.4437 F   0  0  0  0  0  0  0  0  0  0  0  0
    9.9156   -3.8250   17.0769 N   0  0  0  0  0  0  0  0  0  0  0  0
    7.3906   -6.7172   17.7868 C   0  0  0  0  0  0  0  0  0  0  0  0
   10.6961   -8.6465   18.1157 C   0  0  0  0  0  0  0  0  0  0  0  0
    9.1032   -5.9517   17.6484 O   0  0  0  0  0  0  0  0  0  0  0  0
   11.0060   -3.3278   19.6836 N   0  0  0  0  0  0  0  0  0  0  0  0
    0.8544  -10.3622   16.1373 C   0  0  0  0  0  0  0  0  0  0  0  0
    8.2315   -7.1540   16.7757 C   0  0  0  0  0  0  0  0  0  0  0  0
   10.4585   -3.9618   18.4889 C   0  0  0  0  0  0  0  0  0  0  0  0
    9.9637   -5.4553   18.9090 C   0  0  0  0  0  0  0  0  0  0  0  0
    7.5301   -9.4660   17.4167 C   0  0  0  0  0  0  0  0  0  0  0  0
    9.4425   -3.5662   16.7636 C   0  0  0  0  0  0  0  0  0  0  0  0
    9.1174   -6.3867   17.7709 C   0  0  0  0  0  0  0  0  0  0  0  0
    0.1825  -10.3273   14.4119 C   0  0  0  0  0  0  0  0  0  0  0  0
    1.4674   -9.4481   16.8673 He  0  0  0  0  0  0  0  0  0  0  0  0
    7.2229   -4.7126   14.7608 He  0  0  0  0  0  0  0  0  0  0  0  0
    7.8832   -7.3817   14.8724 He  0  0  0  0  0  0  0  0  0  0  0  0
    1.6495  -11.1940   18.0513 He  0  0  0  0  0  0  0  0  0  0  0  0
   10.9839   -5.1856   19.9213 He  0  0  0  0  0  0  0  0  0  0  0  0
    3.5446  -10.9870   16.1324 He  0  0  0  0  0  0  0  0  0  0  0  0
  1  2  1  0
  1 25  1  0
  1 27  2  0
  2  5  3  0
  2  6  4  0
  2  7  4  0
  2 17  4  0
  2 20  4  0
  2 21  1  0
  2 25  4  0
  3  8  3  0
  3 18  3  0
  3 21  4  0
  3 22  2  0
  3 23  3  0
  3 26  1  0
  4  5  4  0
  4  8  2  0
  4 19  1  0
  4 21  1  0
  4 25  4  0
  5  7  3  0
  5  9  4  0
  5 10  1  0
  5 11  3  0
  5 17  1  0
  5 21  4  0
  5 27  1  0
  6  8  2  0
  6 11  4  0
  6 17  1  0
  6 18  3  0
  6 25  4  0
  7 17  3  0
  7 18  1  0
  7 19  3  0
  7 20  4  0
  7 22  3  0
  7 25  3  0
  7 27  3  0
  8 11  1  0
  8 12  2  0
  8 20  4  0
  8 25  1  0
  8 26  1  0
  9 10  1  0
  9 11  2  0
  9 13  2  0
  9 21  4  0
  9 26  3  0
 10 14  4  0
 10 25  3  0
 10 27  2  0
 10 28  4  0
 11 12  4  0
 11 13  1  0
 11 18  4  0
 11 21  4  0
 11 22  3  0
 11 26  3  0
 12 14  2  0
 12 24  2  0
 12 25  2  0
 12 26  4  0
 13 16  2  0
 14 18  3  0
 15 18  3  0
 15 20  4  0
 15 23  4  0
 15 27  1  0
 16 18  1  0
 16 19  2  0
 16 22  4  0
 16 23  4  0
 16 26  4  0
 18 19  4  0
 18 24  3  0
 18 28  4  0
 19 22  2  0
 19 27  3  0
 20 23  4  0
 20 27  1  0
 21 26  2  0
 21 28  4  0
 22 27  1  0
 23 24  4  0
 23 27  2  0
 24 25  2  0
 27 28  3  0
M  END
$$$$

 Created by Python create_sdf_string function

 34 31  0  0  0  0  0  0  0  0999 V2000
    4.1481   -8.7571   16.5372 N   0  0  0  0  0  0  0  0  0  0  0  0
   11.1314   -3.4998   20.8798 C   0  0  0  0  0  0  0  0  0  0  0  0
    8.5347   -6.5074   16.6994 C   0  0  0  0  0  0  0  0  0  0  0  0
    2.1930   -9.9004   16.6860 C   0  0  0  0  0  0  0  0  0  0  0  0
    0.5085  -11.2382   18.1726 N   0  0  0  0  0  0  0  0  0  0  0  0
    7.7891   -5.2485   15.2685 O   0  0  0  0  0  0  0  0  0  0  0  0
    0.1602  -11.1245   16.8395 C   0  0  0  0  0  0  0  0  0  0  0  0
   10.8811   -4.8687   21.2391 C   0  0  0  0  0  0  0  0  0  0  0  0
    7.0602   -8.0608   16.7129 C   0  0  0  0  0  0  0  0  0  0  0  0
    6.1543   -9.8229   16.4715 N   0  0  0  0  0  0  0  0  0  0  0  0
   -0.9260  -11.8081   16.2674 C   0  0  0  0  0  0  0  0  0  0  0  0
    7.7412   -7.9089   15.4398 C   0  0  0  0  0  0  0  0  0  0  0  0
   -0.6567  -10.8678   14.1410 C   0  0  0  0  0  0  0  0  0  0  0  0
    4.3410  -10.6799   18.2774 N   0  0  0  0  0  0  0  0  0  0  0  0
    3.7506  -11.3418   19.2055 C   0  0  0  0  0  0  0  0  0  0  0  0
    2.5368  -10.3496   17.6063 C   0  0  0  0  0  0  0  0  0  0  0  0
   -1.2911  -11.7033   14.9494 C   0  0  0  0  0  0  0  0  0  0  0  0
    1.7378  -11.6672   19.5740 N   0  0  0  0  0  0  0  0  0  0  0  0
   10.0674   -3.6728   17.2724 N   0  0  0  0  0  0  0  0  0  0  0  0
    6.7493   -7.1428   17.6565 C   0  0  0  0  0  0  0  0  0  0  0  0
    9.6489   -7.9323   18.0742 C   0  0  0  0  0  0  0  0  0  0  0  0
    9.5142   -5.9976   17.7825 C   0  0  0  0  0  0  0  0  0  0  0  0
   10.9268   -3.0844   19.5771 N   0  0  0  0  0  0  0  0  0  0  0  0
    0.8379  -10.3427   16.0048 C   0  0  0  0  0  0  0  0  0  0  0  0
    8.2579   -6.9382   16.7442 C   0  0  0  0  0  0  0  0  0  0  0  0
   10.3951   -3.9363   18.5466 C   0  0  0  0  0  0  0  0  0  0  0  0
    1.7385  -11.0866   18.4559 C   0  0  0  0  0  0  0  0  0  0  0  0
   10.1548   -5.1875   18.8909 C   0  0  0  0  0  0  0  0  0  0  0  0
    6.5374   -9.2245   16.7661 C   0  0  0  0  0  0  0  0  0  0  0  0
   10.4546   -5.6569   20.2452 C   0  0  0  0  0  0  0  0  0  0  0  0
    9.5732   -3.9335   16.4160 C   0  0  0  0  0  0  0  0  0  0  0  0
    8.9945   -6.5292   17.4473 C   0  0  0  0  0  0  0  0  0  0  0  0
    4.0704   -9.7791   17.1463 C   0  0  0  0  0  0  0  0  0  0  0  0
    0.4260  -10.1591   14.6717 C   0  0  0  0  0  0  0  0  0  0  0  0
  1 33  4  0
  2  8  4  0
  2 23  4  0
  3 25  1  0
  4 16  4  0
  4 24  4  0
  5  7  4  0
  5 27  4  0
  7 11  4  0
  7 24  4  0
  8 30  4  0
  9 20  1  0
  9 29  1  0
 10 29  1  0
 11 17  4  0
 13 17  4  0
 13 34  4  0
 14 15  4  0
 14 33  4  0
 15 18  4  0
 16 27  4  0
 18 27  4  0
 19 26  4  0
 19 31  4  0
 22 28  4  0
 22 32  4  0
 23 26  4  0
 24 34  4  0
 25 32  1  0
 26 28  4  0
 28 30  4  0
M  END
$$$$

 Created by Python create_sdf_string function

 34 86  0  0  0  0  0  0  0  0999 V2000
    3.9512   -7.2241   17.0556 N   0  0  0  0  0  0  0  0  0  0  0  0
   11.1039   -3.5082   20.4627 C   0  0  0  0  0  0  0  0  0  0  0  0
    0.2042  -11.6191   17.9992 N   0  0  0  0  0  0  0  0  0  0  0  0
    0.0147  -11.0934   16.7148 N   0  0  0  0  0  0  0  0  0  0  0  0
   10.7446   -4.3889   21.1828 C   0  0  0  0  0  0  0  0  0  0  0  0
    6.6908   -7.2015   15.8751 C   0  0  0  0  0  0  0  0  0  0  0  0
    5.8341  -10.8260   17.7075 N   0  0  0  0  0  0  0  0  0  0  0  0
   -0.9945  -11.7775   16.5423 C   0  0  0  0  0  0  0  0  0  0  0  0
   -0.5482  -10.6839   14.2200 C   0  0  0  0  0  0  0  0  0  0  0  0
    3.6489   -9.2805   18.1683 N   0  0  0  0  0  0  0  0  0  0  0  0
    2.9788  -10.3329   18.8356 C   0  0  0  0  0  0  0  0  0  0  0  0
    3.0133   -9.5718   17.5121 C   0  0  0  0  0  0  0  0  0  0  0  0
   -1.2575  -10.8750   15.2965 C   0  0  0  0  0  0  0  0  0  0  0  0
    9.8024   -3.8227   17.0932 N   0  0  0  0  0  0  0  0  0  0  0  0
    6.7871   -7.0953   17.7181 F   0  0  0  0  0  0  0  0  0  0  0  0
   10.0142   -8.9349   18.5065 N   0  0  0  0  0  0  0  0  0  0  0  0
    9.5117   -5.6982   17.3761 C   0  0  0  0  0  0  0  0  0  0  0  0
   10.8541   -3.0218   19.5053 N   0  0  0  0  0  0  0  0  0  0  0  0
    0.9790  -10.3686   15.8615 P   0  0  0  0  0  0  0  0  0  0  0  0
    8.4052   -7.0732   16.7283 C   0  0  0  0  0  0  0  0  0  0  0  0
   10.1747   -3.3459   18.7523 C   0  0  0  0  0  0  0  0  0  0  0  0
    1.4444  -11.0171   18.4832 C   0  0  0  0  0  0  0  0  0  0  0  0
   10.3797   -5.0563   18.7088 C   0  0  0  0  0  0  0  0  0  0  0  0
    7.8322  -10.0002   17.6524 C   0  0  0  0  0  0  0  0  0  0  0  0
    9.7532   -4.1904   16.6688 C   0  0  0  0  0  0  0  0  0  0  0  0
    9.1036   -5.9525   19.0104 C   0  0  0  0  0  0  0  0  0  0  0  0
    3.1254   -8.9308   18.1720 C   0  0  0  0  0  0  0  0  0  0  0  0
    0.4787  -10.1612   14.5993 C   0  0  0  0  0  0  0  0  0  0  0  0
    8.0490   -7.9266   17.7838 He  0  0  0  0  0  0  0  0  0  0  0  0
    2.3445  -10.0631   16.8941 He  0  0  0  0  0  0  0  0  0  0  0  0
    8.0142   -5.2523   15.2988 He  0  0  0  0  0  0  0  0  0  0  0  0
    6.1669   -7.3240   15.8432 He  0  0  0  0  0  0  0  0  0  0  0  0
    2.4922  -11.9342   19.1279 He  0  0  0  0  0  0  0  0  0  0  0  0
   10.6216   -6.2832   19.4382 He  0  0  0  0  0  0  0  0  0  0  0  0
  1  3  3  0
  1 11  4  0
  1 12  4  0
  1 16  4  0
  1 17  1  0
  1 18  4  0
  1 21  1  0
  1 27  3  0
  2  5  4  0
  2 12  1  0
  2 16  3  0
  2 18  4  0
  2 27  1  0
  3  4  4  0
  3  9  3  0
  3 11  2  0
  3 16  2  0
  3 22  4  0
  3 24  1  0
  3 27  2  0
  4  8  4  0
  4 11  1  0
  4 19  4  0
  4 21  1  0
  4 26  1  0
  5  7  2  0
  5  9  2  0
  5 11  1  0
  5 12  2  0
  5 16  4  0
  5 24  4  0
  5 27  4  0
  6  8  2  0
  6 14  4  0
  6 15  1  0
  6 17  1  0
  6 22  1  0
  6 24  1  0
  6 26  4  0
  7 13  3  0
  7 19  1  0
  7 20  4  0
  7 24  1  0
  8 13  4  0
  8 23  2  0
  8 24  1  0
  9 13  4  0
  9 19  4  0
  9 28  4  0
 10 11  3  0
 10 12  4  0
 10 19  1  0
 10 20  2  0
 10 26  2  0
 10 27  4  0
 10 28  4  0
 11 12  1  0
 11 13  4  0
 11 19  1  0
 11 22  2  0
 11 26  2  0
 12 16  2  0
 12 17  3  0
 12 19  1  0
 12 20  3  0
 13 24  4  0
 14 18  2  0
 14 21  4  0
 14 23  2  0
 14 25  4  0
 14 28  4  0
 15 22  3  0
 15 25  4  0
 16 24  1  0
 16 28  4  0
 17 25  3  0
 17 26  3  0
 18 21  4  0
 20 21  2  0
 20 26  1  0
 21 23  4  0
 21 25  4  0
 21 26  1  0
 21 28  2  0
 25 27  3  0
 27 28  4  0
M  END
$$$$

 Created by Python create_sdf_string function

 34 36  0  0  0  0  0  0  0  0999 V2000
    3.8276   -7.9265   16.7714 N   0  0  0  0  0  0  0  0  0  0  0  0
   11.1719   -3.3620   20.8135 C   0  0  0  0  0  0  0  0  0  0  0  0
    8.1728   -7.8500   17.5931 C   0  0  0  0  0  0  0  0  0  0  0  0
    1.9552  -10.0795   17.1411 C   0  0  0  0  0  0  0  0  0  0  0  0
    0.4746  -11.4794   18.0720 N   0  0  0  0  0  0  0  0  0  0  0  0
    7.5432   -5.7728   15.5503 O   0  0  0  0  0  0  0  0  0  0  0  0
    0.0012  -11.1915   16.8531 C   0  0  0  0  0  0  0  0  0  0  0  0
   10.9921   -4.7366   21.0496 C   0  0  0  0  0  0  0  0  0  0  0  0
    6.7278   -7.2525   16.2740 C   0  0  0  0  0  0  0  0  0  0  0  0
    5.9342   -9.7954   17.6273 N   0  0  0  0  0  0  0  0  0  0  0  0
   -1.0863  -11.6258   16.2926 C   0  0  0  0  0  0  0  0  0  0  0  0
    5.8081   -7.4904   16.1238 C   0  0  0  0  0  0  0  0  0  0  0  0
   -0.5490  -10.5701   14.2346 C   0  0  0  0  0  0  0  0  0  0  0  0
    4.0905  -10.0020   18.0529 N   0  0  0  0  0  0  0  0  0  0  0  0
    3.5752  -10.9008   18.7861 C   0  0  0  0  0  0  0  0  0  0  0  0
    3.5804   -9.3466   17.3589 C   0  0  0  0  0  0  0  0  0  0  0  0
   -1.3576  -11.3222   14.9567 C   0  0  0  0  0  0  0  0  0  0  0  0
    2.4892  -11.4148   19.2741 N   0  0  0  0  0  0  0  0  0  0  0  0
   10.3527   -3.3292   17.2455 N   0  0  0  0  0  0  0  0  0  0  0  0
    6.5015   -7.4302   17.3889 C   0  0  0  0  0  0  0  0  0  0  0  0
    9.1796   -8.4737   18.0977 C   0  0  0  0  0  0  0  0  0  0  0  0
    9.4835   -5.3470   17.2299 C   0  0  0  0  0  0  0  0  0  0  0  0
   11.0061   -2.8644   19.5858 N   0  0  0  0  0  0  0  0  0  0  0  0
    0.8870  -10.3287   16.2183 C   0  0  0  0  0  0  0  0  0  0  0  0
    8.2626   -6.8095   16.9071 C   0  0  0  0  0  0  0  0  0  0  0  0
   10.5646   -3.6979   18.5532 C   0  0  0  0  0  0  0  0  0  0  0  0
    1.5233  -11.1319   18.4119 C   0  0  0  0  0  0  0  0  0  0  0  0
   10.1969   -4.9116   18.7037 C   0  0  0  0  0  0  0  0  0  0  0  0
    7.1670   -9.1852   17.2976 C   0  0  0  0  0  0  0  0  0  0  0  0
   10.4817   -5.5334   20.0230 C   0  0  0  0  0  0  0  0  0  0  0  0
    9.7543   -4.1153   16.4622 C   0  0  0  0  0  0  0  0  0  0  0  0
    9.2062   -6.1504   17.6308 C   0  0  0  0  0  0  0  0  0  0  0  0
    3.1971   -9.2310   17.1834 C   0  0  0  0  0  0  0  0  0  0  0  0
    0.6004  -10.0496   14.8334 C   0  0  0  0  0  0  0  0  0  0  0  0
  1 33  4  0
  2  8  4  0
  2 23  4  0
  3 20  1  0
  3 21  1  0
  3 25  1  0
  4 24  4  0
  4 27  4  0
  4 33  4  0
  5  7  4  0
  5 27  4  0
  6 25  2  0
  7 11  4  0
  7 24  4  0
  8 30  4  0
  9 12  1  0
  9 20  1  0
 10 29  1  0
 11 17  4  0
 13 17  4  0
 13 34  4  0
 14 15  4  0
 14 16  4  0
 15 18  4  0
 18 27  4  0
 19 26  4  0
 19 31  4  0
 22 28  4  0
 22 31  4  0
 22 32  4  0
 23 26  4  0
 24 34  4  0
 25 32  1  0
 26 28  4  0
 28 30  4  0
 28 32  4  0
M  END
$$$$

 Created by Python create_sdf_string function

 34 85  0  0  0  0  0  0  0  0999 V2000
    3.7742   -8.2102   16.3023 N   0  0  0  0  0  0  0  0  0  0  0  0
   11.3021   -3.3026   21.0033 C   0  0  0  0  0  0  0  0  0  0  0  0
    8.5139   -7.7361   17.7520 C   0  0  0  0  0  0  0  0  0  0  0  0
    1.6074  -10.5004   16.8280 S   0  0  0  0  0  0  0  0  0  0  0  0
    8.0394   -5.7706   16.3324 F   0  0  0  0  0  0  0  0  0  0  0  0
   -0.1659  -10.7937   16.7424 C   0  0  0  0  0  0  0  0  0  0  0  0
   11.1653   -4.8749   20.9300 C   0  0  0  0  0  0  0  0  0  0  0  0
    6.0817   -8.0703   16.0632 C   0  0  0  0  0  0  0  0  0  0  0  0
    5.6856   -9.9907   17.7447 N   0  0  0  0  0  0  0  0  0  0  0  0
   -0.8840  -11.2346   16.1904 C   0  0  0  0  0  0  0  0  0  0  0  0
    6.4798   -7.4295   16.0080 P   0  0  0  0  0  0  0  0  0  0  0  0
   -0.3744  -10.6506   14.5159 C   0  0  0  0  0  0  0  0  0  0  0  0
    2.7583   -8.2334   17.6827 C   0  0  0  0  0  0  0  0  0  0  0  0
   -1.0984  -11.3439   14.7795 C   0  0  0  0  0  0  0  0  0  0  0  0
   10.7675   -3.1564   16.8857 N   0  0  0  0  0  0  0  0  0  0  0  0
    6.6078   -7.4685   16.9796 C   0  0  0  0  0  0  0  0  0  0  0  0
    9.0984   -5.6019   17.2803 C   0  0  0  0  0  0  0  0  0  0  0  0
   11.2390   -2.5381   19.1458 P   0  0  0  0  0  0  0  0  0  0  0  0
    1.5233  -10.2395   16.0390 C   0  0  0  0  0  0  0  0  0  0  0  0
    8.7845   -6.8187   17.0217 C   0  0  0  0  0  0  0  0  0  0  0  0
   10.6236   -3.7394   18.2992 C   0  0  0  0  0  0  0  0  0  0  0  0
    1.6501  -11.1842   18.4563 C   0  0  0  0  0  0  0  0  0  0  0  0
   10.3102   -4.8696   18.8319 C   0  0  0  0  0  0  0  0  0  0  0  0
    7.3141   -9.1809   18.1229 C   0  0  0  0  0  0  0  0  0  0  0  0
   11.3655   -5.6944   20.1977 C   0  0  0  0  0  0  0  0  0  0  0  0
    9.9838   -4.2036   16.5543 C   0  0  0  0  0  0  0  0  0  0  0  0
    4.4218  -10.1290   17.5258 C   0  0  0  0  0  0  0  0  0  0  0  0
    0.4911  -10.6240   14.3780 C   0  0  0  0  0  0  0  0  0  0  0  0
    0.7229  -11.6812   18.0886 He  0  0  0  0  0  0  0  0  0  0  0  0
    5.9432   -9.9487   17.3764 He  0  0  0  0  0  0  0  0  0  0  0  0
    3.5846  -10.9475   18.7435 He  0  0  0  0  0  0  0  0  0  0  0  0
    3.5297  -11.0515   18.5350 He  0  0  0  0  0  0  0  0  0  0  0  0
    9.9638   -8.1077   18.2114 He  0  0  0  0  0  0  0  0  0  0  0  0
    8.6289   -5.9377   18.0526 He  0  0  0  0  0  0  0  0  0  0  0  0
  1  2  1  0
  1  5  1  0
  1 12  4  0
  1 21  3  0
  1 24  2  0
  2  7  4  0
  2 11  3  0
  2 14  2  0
  2 18  4  0
  3  4  4  0
  3  8  2  0
  3 11  4  0
  3 12  2  0
  3 16  1  0
  3 18  2  0
  3 24  2  0
  3 28  2  0
  4  8  3  0
  4 13  3  0
  4 17  1  0
  4 18  3  0
  4 19  1  0
  4 21  3  0
  5  6  4  0
  5 15  1  0
  5 16  1  0
  5 20  2  0
  5 22  2  0
  5 26  2  0
  5 28  1  0
  6  7  2  0
  6  8  3  0
  6 10  4  0
  6 19  1  0
  7  9  1  0
  7 10  3  0
  7 13  2  0
  7 20  2  0
  7 23  4  0
  7 25  4  0
  7 27  3  0
  7 28  4  0
  8 10  4  0
  8 11  4  0
  8 15  2  0
  8 18  3  0
  8 20  3  0
  8 21  2  0
  9 10  3  0
  9 14  3  0
  9 16  4  0
  9 18  3  0
  9 21  2  0
  9 24  1  0
 10 14  4  0
 10 24  2  0
 11 15  2  0
 11 17  2  0
 11 20  2  0
 11 25  2  0
 12 14  4  0
 12 27  1  0
 13 17  1  0
 13 23  1  0
 14 17  1  0
 14 23  4  0
 14 25  4  0
 14 27  1  0
 14 28  1  0
 15 21  4  0
 15 22  4  0
 15 26  4  0
 15 27  2  0
 18 21  4  0
 19 20  1  0
 19 24  1  0
 19 28  4  0
 21 24  4  0
 21 25  1  0
 22 27  4  0
 23 24  3  0
 23 25  4  0
 24 26  2  0
 25 27  4  0
 25 28  2  0
M  END
$$$$

 Created by Python create_sdf_string function

 34 35  0  0  0  0  0  0  0  0999 V2000
    3.4721   -8.2767   16.2558 N   0  0  0  0  0  0  0  0  0  0  0  0
   11.5084   -3.2628   20.7875 C   0  0  0  0  0  0  0  0  0  0  0  0
    8.4930   -7.9167   17.6830 C   0  0  0  0  0  0  0  0  0  0  0  0
    2.0834   -9.9585   16.8192 C   0  0  0  0  0  0  0  0  0  0  0  0
    0.6205  -11.3440   18.1308 N   0  0  0  0  0  0  0  0  0  0  0  0
    7.8182   -5.8076   16.0031 O   0  0  0  0  0  0  0  0  0  0  0  0
    0.1424  -11.0014   16.7203 C   0  0  0  0  0  0  0  0  0  0  0  0
   11.2227   -4.5696   21.0874 C   0  0  0  0  0  0  0  0  0  0  0  0
    5.6040   -8.1979   16.2181 C   0  0  0  0  0  0  0  0  0  0  0  0
    5.4126   -9.9115   18.0689 N   0  0  0  0  0  0  0  0  0  0  0  0
   -1.0184  -11.4833   16.2257 C   0  0  0  0  0  0  0  0  0  0  0  0
    6.2460   -7.4309   15.8716 C   0  0  0  0  0  0  0  0  0  0  0  0
   -0.4303  -10.7488   14.0600 C   0  0  0  0  0  0  0  0  0  0  0  0
    5.6197   -9.1924   17.3954 C   0  0  0  0  0  0  0  0  0  0  0  0
    3.7021  -10.9657   18.6056 C   0  0  0  0  0  0  0  0  0  0  0  0
    3.2567   -9.2484   16.8687 C   0  0  0  0  0  0  0  0  0  0  0  0
   -1.3244  -11.3344   14.8754 C   0  0  0  0  0  0  0  0  0  0  0  0
    3.2113  -11.2375   18.8749 N   0  0  0  0  0  0  0  0  0  0  0  0
   10.6390   -3.2530   17.2390 N   0  0  0  0  0  0  0  0  0  0  0  0
    7.2250   -7.5634   16.7625 C   0  0  0  0  0  0  0  0  0  0  0  0
    9.6776   -7.9285   18.3700 C   0  0  0  0  0  0  0  0  0  0  0  0
    9.3036   -5.2461   16.9488 C   0  0  0  0  0  0  0  0  0  0  0  0
   11.2372   -2.7949   19.5427 N   0  0  0  0  0  0  0  0  0  0  0  0
    0.9713  -10.3312   16.0459 C   0  0  0  0  0  0  0  0  0  0  0  0
    8.2532   -6.5138   16.7387 C   0  0  0  0  0  0  0  0  0  0  0  0
   10.7707   -3.6673   18.5532 C   0  0  0  0  0  0  0  0  0  0  0  0
    1.5953  -11.2215   18.4661 C   0  0  0  0  0  0  0  0  0  0  0  0
   10.3476   -4.9135   18.8527 C   0  0  0  0  0  0  0  0  0  0  0  0
    7.3376   -8.9320   17.8048 C   0  0  0  0  0  0  0  0  0  0  0  0
   10.6279   -5.3298   20.1671 C   0  0  0  0  0  0  0  0  0  0  0  0
    9.8671   -4.0097   16.4845 C   0  0  0  0  0  0  0  0  0  0  0  0
    9.6760   -5.6952   17.8891 C   0  0  0  0  0  0  0  0  0  0  0  0
    3.7921   -9.9903   17.6447 C   0  0  0  0  0  0  0  0  0  0  0  0
    0.6690  -10.1588   14.6172 C   0  0  0  0  0  0  0  0  0  0  0  0
  1 16  4  0
  2  8  4  0
  2 23  4  0
  3 21  1  0
  3 25  1  0
  3 29  4  0
  4 16  4  0
  4 24  4  0
  5  7  4  0
  5 27  4  0
  6 25  2  0
  7 11  4  0
  7 24  4  0
  8 30  4  0
  9 12  4  0
  9 14  4  0
 10 14  4  0
 11 17  4  0
 12 20  4  0
 13 17  4  0
 13 34  4  0
 14 29  4  0
 15 18  4  0
 15 33  4  0
 16 33  4  0
 18 27  4  0
 19 26  4  0
 19 31  4  0
 22 31  4  0
 22 32  4  0
 23 26  4  0
 24 34  4  0
 26 28  4  0
 28 30  4  0
 28 32  4  0
M  END
$$$$

 Created by Python create_sdf_string function

 34 65  0  0  0  0  0  0  0  0999 V2000
    3.0307   -8.7742   15.5746 N   0  0  0  0  0  0  0  0  0  0  0  0
   11.6845   -3.2568   20.7449 C   0  0  0  0  0  0  0  0  0  0  0  0
    0.5032  -11.1972   18.5215 N   0  0  0  0  0  0  0  0  0  0  0  0
    7.0925   -6.8903   16.1353 C   0  0  0  0  0  0  0  0  0  0  0  0
    0.5125  -10.9523   16.5677 C   0  0  0  0  0  0  0  0  0  0  0  0
   10.8797   -4.8238   21.2375 N   0  0  0  0  0  0  0  0  0  0  0  0
    7.0544   -8.5136   15.0200 C   0  0  0  0  0  0  0  0  0  0  0  0
   -0.7295  -10.8894   13.5769 C   0  0  0  0  0  0  0  0  0  0  0  0
    5.6355   -8.8899   17.1238 F   0  0  0  0  0  0  0  0  0  0  0  0
    3.3589  -10.1481   16.5207 C   0  0  0  0  0  0  0  0  0  0  0  0
   -1.4716  -11.0405   14.9817 C   0  0  0  0  0  0  0  0  0  0  0  0
   10.9361   -3.5300   16.9040 N   0  0  0  0  0  0  0  0  0  0  0  0
    7.0741   -7.3954   17.0097 C   0  0  0  0  0  0  0  0  0  0  0  0
   10.5559   -7.9477   18.7257 C   0  0  0  0  0  0  0  0  0  0  0  0
    9.3109   -5.2507   16.8232 C   0  0  0  0  0  0  0  0  0  0  0  0
   11.1631   -2.8528   19.5026 Cl  0  0  0  0  0  0  0  0  0  0  0  0
    0.6586  -10.2372   16.0497 C   0  0  0  0  0  0  0  0  0  0  0  0
    8.0856   -6.7741   16.5792 C   0  0  0  0  0  0  0  0  0  0  0  0
    1.6110  -11.2932   18.7290 C   0  0  0  0  0  0  0  0  0  0  0  0
   10.4321   -4.9305   18.4332 C   0  0  0  0  0  0  0  0  0  0  0  0
   10.1445   -5.6674   20.0116 C   0  0  0  0  0  0  0  0  0  0  0  0
    9.5555   -3.9903   16.5387 C   0  0  0  0  0  0  0  0  0  0  0  0
    1.6623  -10.1048   16.9274 C   0  0  0  0  0  0  0  0  0  0  0  0
    0.6576  -10.1508   14.7480 C   0  0  0  0  0  0  0  0  0  0  0  0
    9.5308   -8.0151   17.7272 He  0  0  0  0  0  0  0  0  0  0  0  0
    1.3542   -9.2831   17.2329 He  0  0  0  0  0  0  0  0  0  0  0  0
    5.3262   -9.2471   17.8599 He  0  0  0  0  0  0  0  0  0  0  0  0
   -0.7369  -11.2295   16.4104 He  0  0  0  0  0  0  0  0  0  0  0  0
    6.1644   -7.2630   15.2420 He  0  0  0  0  0  0  0  0  0  0  0  0
    2.3108   -9.8550   18.9258 He  0  0  0  0  0  0  0  0  0  0  0  0
    2.7593  -11.3141   19.4210 He  0  0  0  0  0  0  0  0  0  0  0  0
   10.5167   -3.8965   18.7468 He  0  0  0  0  0  0  0  0  0  0  0  0
    7.7297   -9.1371   18.5936 He  0  0  0  0  0  0  0  0  0  0  0  0
    9.4340   -6.7544   18.2698 He  0  0  0  0  0  0  0  0  0  0  0  0
  1  3  2  0
  1 10  4  0
  1 15  1  0
  2  3  3  0
  2  6  2  0
  2  7  2  0
  2  8  4  0
  2 17  1  0
  2 20  1  0
  3  4  3  0
  3  6  2  0
  3  7  4  0
  3  8  4  0
  3 10  2  0
  3 14  2  0
  3 19  1  0
  3 22  4  0
  4  9  2  0
  4 11  3  0
  4 12  2  0
  4 15  2  0
  4 18  2  0
  5  9  1  0
  5 17  4  0
  5 19  3  0
  6 15  2  0
  6 21  3  0
  7  9  4  0
  7 17  4  0
  7 18  1  0
  7 20  2  0
  8 10  2  0
  8 11  4  0
  8 14  4  0
  8 20  3  0
  8 24  4  0
  9 11  4  0
  9 18  1  0
  9 19  3  0
  9 21  4  0
 10 11  2  0
 10 13  4  0
 10 14  2  0
 10 24  4  0
 11 16  4  0
 11 19  3  0
 11 23  3  0
 12 14  3  0
 12 16  4  0
 13 19  2  0
 13 21  4  0
 13 23  3  0
 14 17  3  0
 14 19  2  0
 14 22  1  0
 15 21  2  0
 15 22  4  0
 16 20  4  0
 16 24  4  0
 17 24  4  0
 18 21  3  0
 19 22  3  0
 20 21  4  0
 20 23  1  0
 22 24  3  0
M  END
$$$$

 Created by Python create_sdf_string function

 34 29  0  0  0  0  0  0  0  0999 V2000
    3.4881   -8.8084   16.1335 N   0  0  0  0  0  0  0  0  0  0  0  0
   11.3995   -3.4311   20.7486 C   0  0  0  0  0  0  0  0  0  0  0  0
    9.3254   -7.5507   17.9662 C   0  0  0  0  0  0  0  0  0  0  0  0
    2.1142   -9.4759   16.7803 N   0  0  0  0  0  0  0  0  0  0  0  0
    0.7229  -11.3028   18.5685 N   0  0  0  0  0  0  0  0  0  0  0  0
    7.4950   -7.1023   16.3177 C   0  0  0  0  0  0  0  0  0  0  0  0
    0.1967  -10.7672   16.4932 C   0  0  0  0  0  0  0  0  0  0  0  0
   11.1377   -4.7063   21.0548 N   0  0  0  0  0  0  0  0  0  0  0  0
    6.5511   -8.3113   15.4888 C   0  0  0  0  0  0  0  0  0  0  0  0
    5.0787   -9.0586   17.6006 C   0  0  0  0  0  0  0  0  0  0  0  0
   -1.0060  -11.3918   16.1579 C   0  0  0  0  0  0  0  0  0  0  0  0
    6.1068   -7.6357   15.3944 C   0  0  0  0  0  0  0  0  0  0  0  0
   -0.6502  -10.7220   14.0158 C   0  0  0  0  0  0  0  0  0  0  0  0
    5.6894   -8.8101   17.1987 C   0  0  0  0  0  0  0  0  0  0  0  0
    2.4308  -10.4070   18.4143 C   0  0  0  0  0  0  0  0  0  0  0  0
    3.2796   -9.1467   16.6757 C   0  0  0  0  0  0  0  0  0  0  0  0
   -1.3695  -11.3427   14.8798 C   0  0  0  0  0  0  0  0  0  0  0  0
    2.6431  -11.5336   19.6081 O   0  0  0  0  0  0  0  0  0  0  0  0
   10.5134   -3.4171   17.1320 N   0  0  0  0  0  0  0  0  0  0  0  0
    6.9213   -7.8881   17.1736 C   0  0  0  0  0  0  0  0  0  0  0  0
    9.8684   -8.1270   18.4999 C   0  0  0  0  0  0  0  0  0  0  0  0
    9.2296   -5.3443   16.7776 C   0  0  0  0  0  0  0  0  0  0  0  0
   11.1431   -3.0466   19.4348 N   0  0  0  0  0  0  0  0  0  0  0  0
    0.8074  -10.1635   15.7310 C   0  0  0  0  0  0  0  0  0  0  0  0
    7.8768   -6.4742   16.1238 C   0  0  0  0  0  0  0  0  0  0  0  0
   10.7157   -3.8931   18.4681 C   0  0  0  0  0  0  0  0  0  0  0  0
    1.7490  -11.1592   18.9985 C   0  0  0  0  0  0  0  0  0  0  0  0
   10.3153   -5.1075   18.8991 C   0  0  0  0  0  0  0  0  0  0  0  0
    7.3737   -8.5046   18.1513 C   0  0  0  0  0  0  0  0  0  0  0  0
   10.4899   -5.5030   20.1642 C   0  0  0  0  0  0  0  0  0  0  0  0
    9.6767   -4.1541   16.3809 C   0  0  0  0  0  0  0  0  0  0  0  0
    9.6194   -6.0759   17.8623 C   0  0  0  0  0  0  0  0  0  0  0  0
    2.2138   -9.8593   17.3309 C   0  0  0  0  0  0  0  0  0  0  0  0
    0.5087  -10.0815   14.3963 C   0  0  0  0  0  0  0  0  0  0  0  0
  1 16  4  0
  2  8  4  0
  2 23  4  0
  3 21  1  0
  3 32  4  0
  5 27  1  0
  6 20  4  0
  6 25  4  0
  7 11  4  0
  7 24  4  0
  8 30  4  0
  9 12  4  0
 10 14  4  0
 11 17  4  0
 13 17  4  0
 13 34  4  0
 15 27  1  0
 16 33  4  0
 18 27  1  0
 19 26  4  0
 19 31  4  0
 20 29  4  0
 22 31  4  0
 22 32  4  0
 23 26  4  0
 24 34  4  0
 26 28  4  0
 28 30  4  0
 28 32  4  0
M  END
$$$$

 Created by Python create_sdf_string function

 34 90  0  0  0  0  0  0  0  0999 V2000
   11.2205   -3.5932   20.6804 Cl  0  0  0  0  0  0  0  0  0  0  0  0
    2.2653   -9.9977   16.4984 P   0  0  0  0  0  0  0  0  0  0  0  0
    0.4812  -11.4114   18.7184 N   0  0  0  0  0  0  0  0  0  0  0  0
    7.8013   -7.1643   16.3670 C   0  0  0  0  0  0  0  0  0  0  0  0
    0.3628  -10.9665   16.4996 C   0  0  0  0  0  0  0  0  0  0  0  0
   10.9098   -4.6071   21.1675 P   0  0  0  0  0  0  0  0  0  0  0  0
    6.1559   -9.5718   15.7755 Se  0  0  0  0  0  0  0  0  0  0  0  0
    5.7662   -8.6394   17.3483 C   0  0  0  0  0  0  0  0  0  0  0  0
   -0.9560  -11.4856   16.4099 C   0  0  0  0  0  0  0  0  0  0  0  0
    5.9390   -7.9752   15.7478 S   0  0  0  0  0  0  0  0  0  0  0  0
    0.1466  -10.5655   13.7873 O   0  0  0  0  0  0  0  0  0  0  0  0
    6.3997   -9.2107   16.3539 C   0  0  0  0  0  0  0  0  0  0  0  0
    2.3683  -11.0286   18.3524 N   0  0  0  0  0  0  0  0  0  0  0  0
    3.0596   -9.9817   16.6165 C   0  0  0  0  0  0  0  0  0  0  0  0
   -1.1174  -11.3314   14.9175 F   0  0  0  0  0  0  0  0  0  0  0  0
   10.5610   -3.1599   17.1276 N   0  0  0  0  0  0  0  0  0  0  0  0
    7.0126   -7.7118   17.3794 O   0  0  0  0  0  0  0  0  0  0  0  0
    9.1788   -5.2510   16.9443 C   0  0  0  0  0  0  0  0  0  0  0  0
   11.2538   -3.0876   19.1188 N   0  0  0  0  0  0  0  0  0  0  0  0
    0.6552   -9.8455   15.2444 C   0  0  0  0  0  0  0  0  0  0  0  0
    7.6560   -6.2061   16.2699 C   0  0  0  0  0  0  0  0  0  0  0  0
    1.8204  -11.5331   18.8557 C   0  0  0  0  0  0  0  0  0  0  0  0
   10.5701   -5.3185   18.4230 C   0  0  0  0  0  0  0  0  0  0  0  0
    7.2090   -8.1755   17.5215 F   0  0  0  0  0  0  0  0  0  0  0  0
   10.7725   -4.8837   20.3225 P   0  0  0  0  0  0  0  0  0  0  0  0
    9.8820   -4.1390   16.0642 C   0  0  0  0  0  0  0  0  0  0  0  0
    2.0276   -9.4654   16.9167 N   0  0  0  0  0  0  0  0  0  0  0  0
    0.3608  -10.2839   14.3235 C   0  0  0  0  0  0  0  0  0  0  0  0
    3.5970   -8.9339   15.7155 He  0  0  0  0  0  0  0  0  0  0  0  0
    9.4563   -6.7853   18.3196 He  0  0  0  0  0  0  0  0  0  0  0  0
    2.2792  -12.2098   20.2462 He  0  0  0  0  0  0  0  0  0  0  0  0
   10.6271   -8.4478   19.4173 He  0  0  0  0  0  0  0  0  0  0  0  0
   11.0799   -3.8229   18.4555 He  0  0  0  0  0  0  0  0  0  0  0  0
   10.2314   -6.3267   18.4897 He  0  0  0  0  0  0  0  0  0  0  0  0
  1  6  4  0
  1 10  2  0
  1 13  2  0
  1 16  3  0
  1 17  2  0
  1 19  4  0
  2  7  1  0
  2 13  1  0
  2 14  2  0
  2 15  1  0
  2 19  1  0
  2 26  4  0
  3  8  2  0
  3  9  2  0
  3 22  1  0
  3 27  1  0
  4  8  4  0
  4 11  1  0
  4 12  4  0
  4 16  2  0
  4 17  4  0
  4 21  4  0
  4 24  4  0
  4 27  1  0
  5  9  4  0
  5 12  2  0
  5 20  4  0
  5 28  3  0
  6  8  3  0
  6 21  2  0
  6 25  4  0
  7 10  4  0
  7 15  3  0
  7 18  4  0
  7 23  3  0
  7 28  1  0
  8  9  2  0
  8 12  3  0
  8 13  1  0
  8 21  1  0
  8 26  3  0
  8 28  4  0
  9 12  3  0
  9 14  1  0
  9 15  4  0
  9 20  3  0
  9 21  2  0
  9 25  3  0
 10 19  4  0
 10 20  2  0
 10 26  1  0
 11 15  3  0
 11 27  4  0
 11 28  4  0
 12 17  1  0
 12 18  1  0
 12 20  4  0
 12 21  3  0
 12 23  4  0
 12 24  1  0
 12 26  3  0
 13 22  1  0
 13 24  4  0
 13 28  2  0
 14 19  3  0
 14 21  2  0
 14 24  1  0
 15 23  1  0
 15 24  3  0
 15 27  3  0
 16 20  3  0
 16 27  1  0
 17 24  4  0
 17 28  4  0
 18 24  2  0
 18 26  4  0
 19 23  2  0
 20 23  4  0
 20 25  4  0
 20 26  3  0
 20 27  4  0
 20 28  4  0
 22 26  4  0
 24 25  1  0
 24 26  3  0
 24 27  2  0
 24 28  3  0
 25 26  2  0
 25 27  1  0
 25 28  1  0
M  END
$$$$

 Created by Python create_sdf_string function

 34 37  0  0  0  0  0  0  0  0999 V2000
    3.6374   -8.8241   16.2420 C   0  0  0  0  0  0  0  0  0  0  0  0
   11.3108   -3.3022   20.8086 C   0  0  0  0  0  0  0  0  0  0  0  0
    9.3322   -7.1018   18.1090 C   0  0  0  0  0  0  0  0  0  0  0  0
    2.5425   -9.9297   17.4943 N   0  0  0  0  0  0  0  0  0  0  0  0
    0.5243  -11.4871   18.3276 N   0  0  0  0  0  0  0  0  0  0  0  0
    7.5434   -6.9503   16.4261 C   0  0  0  0  0  0  0  0  0  0  0  0
    0.2068  -10.8875   16.5688 C   0  0  0  0  0  0  0  0  0  0  0  0
   11.0583   -4.5625   21.2075 C   0  0  0  0  0  0  0  0  0  0  0  0
    6.0233   -9.2079   15.5912 C   0  0  0  0  0  0  0  0  0  0  0  0
    5.1031   -8.3593   17.4579 C   0  0  0  0  0  0  0  0  0  0  0  0
   -0.8568  -11.5640   16.0770 C   0  0  0  0  0  0  0  0  0  0  0  0
    5.6423   -8.3650   15.6398 C   0  0  0  0  0  0  0  0  0  0  0  0
   -0.3709  -10.7123   13.9934 C   0  0  0  0  0  0  0  0  0  0  0  0
    6.3599   -8.8331   16.8178 C   0  0  0  0  0  0  0  0  0  0  0  0
    2.5704  -10.7164   18.4677 N   0  0  0  0  0  0  0  0  0  0  0  0
    2.9921   -9.3499   16.6464 C   0  0  0  0  0  0  0  0  0  0  0  0
   -1.1090  -11.4492   14.7435 C   0  0  0  0  0  0  0  0  0  0  0  0
    1.9333  -11.9996   20.1515 N   0  0  0  0  0  0  0  0  0  0  0  0
   10.7022   -3.3890   17.1950 C   0  0  0  0  0  0  0  0  0  0  0  0
    7.4766   -7.7583   17.2232 C   0  0  0  0  0  0  0  0  0  0  0  0
    9.9897   -8.0444   18.8233 O   0  0  0  0  0  0  0  0  0  0  0  0
    9.2653   -5.1953   16.7873 C   0  0  0  0  0  0  0  0  0  0  0  0
   11.2081   -2.8904   19.5430 N   0  0  0  0  0  0  0  0  0  0  0  0
    0.9752  -10.0889   15.7905 C   0  0  0  0  0  0  0  0  0  0  0  0
    8.1935   -5.7176   16.0640 C   0  0  0  0  0  0  0  0  0  0  0  0
   10.7748   -3.7842   18.5528 C   0  0  0  0  0  0  0  0  0  0  0  0
    1.6640  -11.3922   18.9614 C   0  0  0  0  0  0  0  0  0  0  0  0
   10.4145   -5.0053   18.8915 C   0  0  0  0  0  0  0  0  0  0  0  0
    7.2608   -8.2290   17.5380 C   0  0  0  0  0  0  0  0  0  0  0  0
   10.6530   -5.4367   20.2670 C   0  0  0  0  0  0  0  0  0  0  0  0
    9.8237   -4.0817   16.4334 C   0  0  0  0  0  0  0  0  0  0  0  0
    9.7542   -5.8307   17.9663 C   0  0  0  0  0  0  0  0  0  0  0  0
    2.0893   -9.5088   16.5854 N   0  0  0  0  0  0  0  0  0  0  0  0
    0.6373   -9.9900   14.4555 C   0  0  0  0  0  0  0  0  0  0  0  0
  1 16  4  0
  2  8  4  0
  2 23  4  0
  3 21  2  0
  3 32  4  0
  4 15  4  0
  4 16  4  0
  4 33  4  0
  5  7  1  0
  5 27  1  0
  6 20  4  0
  6 25  4  0
  7 11  4  0
  7 24  4  0
  8 30  4  0
  9 12  4  0
  9 14  4  0
 10 14  4  0
 11 17  4  0
 13 17  4  0
 13 34  4  0
 14 29  1  0
 15 27  1  0
 16 33  4  0
 18 27  1  0
 19 26  4  0
 19 31  4  0
 20 29  4  0
 22 25  4  0
 22 31  4  0
 22 32  4  0
 23 26  4  0
 24 33  4  0
 24 34  4  0
 26 28  4  0
 28 30  4  0
 28 32  4  0
M  END
$$$$

 Created by Python create_sdf_string function

 34 74  0  0  0  0  0  0  0  0999 V2000
   11.5444   -3.2229   20.9927 C   0  0  0  0  0  0  0  0  0  0  0  0
    1.9702  -10.8004   18.4617 N   0  0  0  0  0  0  0  0  0  0  0  0
    0.6413  -11.3846   18.2863 N   0  0  0  0  0  0  0  0  0  0  0  0
    0.2085  -10.8348   16.5791 C   0  0  0  0  0  0  0  0  0  0  0  0
   10.9408   -4.5710   21.3016 C   0  0  0  0  0  0  0  0  0  0  0  0
    6.2072  -10.4875   15.3241 C   0  0  0  0  0  0  0  0  0  0  0  0
   -0.9661  -11.4431   16.3876 S   0  0  0  0  0  0  0  0  0  0  0  0
    5.9651   -7.8673   16.8439 C   0  0  0  0  0  0  0  0  0  0  0  0
   -0.4663  -10.9753   14.1300 C   0  0  0  0  0  0  0  0  0  0  0  0
    6.9274   -8.5881   17.4728 C   0  0  0  0  0  0  0  0  0  0  0  0
    2.7294  -10.9434   18.2638 N   0  0  0  0  0  0  0  0  0  0  0  0
    2.9386  -10.8292   15.2854 C   0  0  0  0  0  0  0  0  0  0  0  0
   -0.8523  -11.4321   14.7765 C   0  0  0  0  0  0  0  0  0  0  0  0
    1.5999  -12.3718   20.6596 N   0  0  0  0  0  0  0  0  0  0  0  0
   10.9857   -3.4963   17.1418 O   0  0  0  0  0  0  0  0  0  0  0  0
    7.0410   -7.8462   17.1999 C   0  0  0  0  0  0  0  0  0  0  0  0
    8.8199   -7.6285   18.4857 O   0  0  0  0  0  0  0  0  0  0  0  0
    9.0393   -5.2233   16.6097 C   0  0  0  0  0  0  0  0  0  0  0  0
   11.1032   -2.9412   19.4567 N   0  0  0  0  0  0  0  0  0  0  0  0
    1.2724   -9.9880   15.7841 C   0  0  0  0  0  0  0  0  0  0  0  0
   10.9252   -3.9352   18.3363 C   0  0  0  0  0  0  0  0  0  0  0  0
    1.8309  -11.2325   18.9247 C   0  0  0  0  0  0  0  0  0  0  0  0
   10.4819   -4.9108   18.7840 C   0  0  0  0  0  0  0  0  0  0  0  0
    7.8899   -8.4324   17.1009 S   0  0  0  0  0  0  0  0  0  0  0  0
    9.8406   -5.1422   19.9688 C   0  0  0  0  0  0  0  0  0  0  0  0
    9.6333   -4.0869   16.1789 C   0  0  0  0  0  0  0  0  0  0  0  0
    0.5865   -9.9068   14.3338 C   0  0  0  0  0  0  0  0  0  0  0  0
    5.0305   -8.8346   14.7473 He  0  0  0  0  0  0  0  0  0  0  0  0
   10.3788   -6.6659   18.2626 He  0  0  0  0  0  0  0  0  0  0  0  0
    7.4668   -7.1480   15.9829 He  0  0  0  0  0  0  0  0  0  0  0  0
    5.5509   -8.8523   16.5104 He  0  0  0  0  0  0  0  0  0  0  0  0
    8.4583   -5.8381   15.9038 He  0  0  0  0  0  0  0  0  0  0  0  0
    9.3179   -5.6270   16.8559 He  0  0  0  0  0  0  0  0  0  0  0  0
    2.1225  -10.1277   17.2827 He  0  0  0  0  0  0  0  0  0  0  0  0
  1  5  4  0
  1  8  3  0
  1  9  4  0
  1 14  1  0
  1 16  1  0
  1 19  4  0
  1 24  4  0
  1 26  2  0
  2 11  4  0
  2 12  1  0
  2 14  2  0
  2 16  3  0
  2 17  3  0
  2 19  1  0
  2 21  4  0
  2 22  2  0
  2 23  4  0
  3  4  1  0
  3 12  4  0
  3 22  1  0
  3 25  1  0
  4 10  1  0
  4 20  4  0
  4 24  4  0
  4 25  3  0
  5  8  3  0
  5 11  4  0
  5 12  1  0
  5 25  4  0
  6 12  1  0
  6 13  2  0
  6 14  3  0
  6 16  2  0
  6 20  4  0
  6 22  1  0
  6 26  1  0
  7 13  4  0
  7 19  3  0
  7 24  2  0
  8 14  2  0
  8 20  1  0
  9 13  4  0
  9 27  1  0
 10 20  2  0
 11 12  4  0
 11 16  1  0
 11 18  2  0
 11 22  2  0
 11 25  4  0
 12 14  1  0
 12 16  4  0
 12 17  3  0
 13 14  3  0
 13 23  2  0
 13 24  1  0
 14 16  4  0
 14 22  1  0
 15 21  4  0
 15 24  1  0
 15 26  4  0
 16 17  3  0
 16 24  4  0
 17 18  1  0
 17 20  4  0
 18 19  2  0
 19 21  4  0
 20 27  4  0
 21 23  4  0
 21 25  2  0
 21 26  4  0
 22 24  4  0
 23 24  2  0
 24 26  2  0
 25 26  2  0
M  END
$$$$

 Created by Python create_sdf_string function

 34 38  0  0  0  0  0  0  0  0999 V2000
    4.5252   -8.9624   15.5569 C   0  0  0  0  0  0  0  0  0  0  0  0
   11.2659   -3.2707   20.7107 C   0  0  0  0  0  0  0  0  0  0  0  0
    9.2570   -7.1951   18.0002 C   0  0  0  0  0  0  0  0  0  0  0  0
    2.4674  -10.3562   17.8076 N   0  0  0  0  0  0  0  0  0  0  0  0
    0.7560  -11.2094   18.0645 N   0  0  0  0  0  0  0  0  0  0  0  0
    7.3971   -6.6684   16.0593 C   0  0  0  0  0  0  0  0  0  0  0  0
    0.3387  -10.9721   16.7270 C   0  0  0  0  0  0  0  0  0  0  0  0
   10.8555   -4.5340   21.1337 C   0  0  0  0  0  0  0  0  0  0  0  0
    5.8542  -10.1268   15.7865 C   0  0  0  0  0  0  0  0  0  0  0  0
    5.4177   -9.3603   16.4052 C   0  0  0  0  0  0  0  0  0  0  0  0
   -0.8368  -11.5310   16.2541 C   0  0  0  0  0  0  0  0  0  0  0  0
    5.6039   -7.8976   16.7346 C   0  0  0  0  0  0  0  0  0  0  0  0
   -0.4118  -10.7407   14.0161 C   0  0  0  0  0  0  0  0  0  0  0  0
    6.2649   -8.6942   16.8423 C   0  0  0  0  0  0  0  0  0  0  0  0
    2.9174  -10.8790   18.8212 N   0  0  0  0  0  0  0  0  0  0  0  0
    3.2005   -9.3477   16.2424 C   0  0  0  0  0  0  0  0  0  0  0  0
   -1.1880  -11.4706   14.8793 C   0  0  0  0  0  0  0  0  0  0  0  0
    1.5251  -12.0248   20.3312 N   0  0  0  0  0  0  0  0  0  0  0  0
   10.6717   -3.3753   17.1350 C   0  0  0  0  0  0  0  0  0  0  0  0
    7.6336   -7.6317   17.0156 C   0  0  0  0  0  0  0  0  0  0  0  0
    9.2144   -8.0467   18.5999 O   0  0  0  0  0  0  0  0  0  0  0  0
    9.2574   -5.1912   16.5538 C   0  0  0  0  0  0  0  0  0  0  0  0
   11.2768   -2.9349   19.4236 N   0  0  0  0  0  0  0  0  0  0  0  0
    1.1068  -10.2058   15.8895 C   0  0  0  0  0  0  0  0  0  0  0  0
    8.2509   -5.7937   15.7579 C   0  0  0  0  0  0  0  0  0  0  0  0
   10.7110   -3.7889   18.4503 C   0  0  0  0  0  0  0  0  0  0  0  0
    1.7611  -11.3055   18.9752 C   0  0  0  0  0  0  0  0  0  0  0  0
   10.2387   -5.0122   18.7812 C   0  0  0  0  0  0  0  0  0  0  0  0
    7.6338   -8.3947   17.1275 C   0  0  0  0  0  0  0  0  0  0  0  0
   10.4236   -5.4390   20.1634 C   0  0  0  0  0  0  0  0  0  0  0  0
    9.9580   -3.9857   16.2698 C   0  0  0  0  0  0  0  0  0  0  0  0
    9.5007   -5.7874   17.7439 C   0  0  0  0  0  0  0  0  0  0  0  0
    2.3288   -9.8424   16.7576 C   0  0  0  0  0  0  0  0  0  0  0  0
    0.7240  -10.0593   14.5381 C   0  0  0  0  0  0  0  0  0  0  0  0
  1 10  1  0
  1 16  4  0
  2  8  4  0
  2 23  4  0
  3 21  2  0
  3 32  4  0
  4  5  4  0
  4 15  4  0
  4 33  4  0
  5  7  4  0
  5 27  4  0
  6 20  4  0
  6 25  4  0
  7 11  4  0
  7 24  4  0
  8 30  4  0
  9 10  1  0
 10 14  1  0
 11 17  4  0
 12 14  4  0
 13 17  4  0
 13 34  4  0
 14 29  4  0
 15 27  2  0
 16 33  4  0
 18 27  1  0
 19 26  4  0
 19 31  4  0
 20 29  4  0
 22 25  4  0
 22 31  4  0
 22 32  4  0
 23 26  4  0
 24 33  4  0
 24 34  4  0
 26 28  4  0
 28 30  4  0
 28 32  4  0
M  END
$$$$

 Created by Python create_sdf_string function

 34110  0  0  0  0  0  0  0  0999 V2000
    5.7007   -7.9626   15.8438 C   0  0  0  0  0  0  0  0  0  0  0  0
   11.1009   -3.1337   21.0777 C   0  0  0  0  0  0  0  0  0  0  0  0
    1.1691  -10.6341   18.1914 O   0  0  0  0  0  0  0  0  0  0  0  0
    6.8375   -6.2461   17.4634 N   0  0  0  0  0  0  0  0  0  0  0  0
    0.6561  -10.8373   17.1915 C   0  0  0  0  0  0  0  0  0  0  0  0
   10.9901   -4.4032   21.0851 O   0  0  0  0  0  0  0  0  0  0  0  0
    5.7483  -10.5395   15.1983 C   0  0  0  0  0  0  0  0  0  0  0  0
    4.9719   -8.8641   16.4797 C   0  0  0  0  0  0  0  0  0  0  0  0
   -0.1322  -10.4405   14.1043 C   0  0  0  0  0  0  0  0  0  0  0  0
    6.1767   -8.5372   17.6416 P   0  0  0  0  0  0  0  0  0  0  0  0
    2.7093   -9.7028   17.8967 N   0  0  0  0  0  0  0  0  0  0  0  0
    1.5064   -9.2783   15.8315 N   0  0  0  0  0  0  0  0  0  0  0  0
   -1.2375  -11.7546   15.1178 C   0  0  0  0  0  0  0  0  0  0  0  0
    1.8625  -12.1987   20.3381 F   0  0  0  0  0  0  0  0  0  0  0  0
   10.7481   -3.6200   16.9432 C   0  0  0  0  0  0  0  0  0  0  0  0
    7.2739   -7.8601   16.8672 C   0  0  0  0  0  0  0  0  0  0  0  0
    9.8376   -7.8825   18.5220 N   0  0  0  0  0  0  0  0  0  0  0  0
    9.4917   -5.1825   16.6882 C   0  0  0  0  0  0  0  0  0  0  0  0
   11.0672   -2.9866   19.6378 N   0  0  0  0  0  0  0  0  0  0  0  0
    1.5676  -10.4939   15.6989 O   0  0  0  0  0  0  0  0  0  0  0  0
    8.1472   -5.7306   15.4734 C   0  0  0  0  0  0  0  0  0  0  0  0
   10.7997   -3.6085   18.2636 C   0  0  0  0  0  0  0  0  0  0  0  0
    1.6581  -11.0743   18.8840 C   0  0  0  0  0  0  0  0  0  0  0  0
   10.4741   -5.2101   19.0047 C   0  0  0  0  0  0  0  0  0  0  0  0
    8.7132   -7.5503   17.1321 C   0  0  0  0  0  0  0  0  0  0  0  0
   11.1179   -4.6344   20.4921 O   0  0  0  0  0  0  0  0  0  0  0  0
    9.9513   -3.8423   16.0757 C   0  0  0  0  0  0  0  0  0  0  0  0
    9.9611   -5.4032   18.3217 C   0  0  0  0  0  0  0  0  0  0  0  0
    1.9231   -9.6870   17.4475 B   0  0  0  0  0  0  0  0  0  0  0  0
    1.2744   -9.9785   14.7660 C   0  0  0  0  0  0  0  0  0  0  0  0
    9.5776   -8.2039   17.3357 He  0  0  0  0  0  0  0  0  0  0  0  0
    0.8714  -11.4472   18.1125 He  0  0  0  0  0  0  0  0  0  0  0  0
   -0.9011  -11.5189   16.4010 He  0  0  0  0  0  0  0  0  0  0  0  0
    4.9748   -7.0977   16.7252 He  0  0  0  0  0  0  0  0  0  0  0  0
  1  3  1  0
  1  5  3  0
  1  8  1  0
  1 12  3  0
  1 15  2  0
  1 20  3  0
  1 21  3  0
  1 23  1  0
  1 24  2  0
  1 27  1  0
  1 28  4  0
  2  4  1  0
  2  5  3  0
  2  6  4  0
  2 12  2  0
  2 19  4  0
  3  4  2  0
  3  7  1  0
  3 11  1  0
  3 15  1  0
  3 19  2  0
  3 29  4  0
  4 12  1  0
  4 16  4  0
  4 22  2  0
  4 28  4  0
  4 29  3  0
  5  7  4  0
  5 11  3  0
  5 20  4  0
  5 21  4  0
  5 26  3  0
  5 30  1  0
  6 17  1  0
  6 18  1  0
  6 29  2  0
  7  8  1  0
  7 12  1  0
  7 17  4  0
  7 20  3  0
  7 24  1  0
  7 25  3  0
  8  9  2  0
  8 10  1  0
  8 12  2  0
  8 15  4  0
  8 25  2  0
  8 27  1  0
  8 28  1  0
  9 13  1  0
  9 18  2  0
  9 30  4  0
 10 14  1  0
 10 18  1  0
 10 21  2  0
 10 22  4  0
 10 24  1  0
 11 14  1  0
 11 16  2  0
 11 18  1  0
 11 19  4  0
 11 20  1  0
 11 23  3  0
 11 24  2  0
 12 17  4  0
 12 18  4  0
 12 21  3  0
 12 22  3  0
 12 24  2  0
 12 27  1  0
 13 16  1  0
 13 20  2  0
 13 26  3  0
 14 22  2  0
 14 23  1  0
 14 27  4  0
 15 21  1  0
 15 22  4  0
 15 25  1  0
 15 27  4  0
 16 21  4  0
 16 25  4  0
 16 29  4  0
 17 18  1  0
 17 19  1  0
 17 23  1  0
 17 24  1  0
 17 25  1  0
 17 27  1  0
 18 20  3  0
 18 21  4  0
 18 26  3  0
 18 27  4  0
 18 28  4  0
 18 29  1  0
 19 22  4  0
 20 25  4  0
 20 29  4  0
 21 24  1  0
 21 25  2  0
 22 24  4  0
 22 25  2  0
 22 28  2  0
 23 25  3  0
 24 26  2  0
 24 29  2  0
 24 30  3  0
 27 28  3  0
 28 30  4  0
 29 30  3  0
M  END
$$$$

 Created by Python create_sdf_string function

 34 35  0  0  0  0  0  0  0  0999 V2000
    5.9046   -8.1962   15.4859 C   0  0  0  0  0  0  0  0  0  0  0  0
   11.1991   -3.2423   20.8171 C   0  0  0  0  0  0  0  0  0  0  0  0
    9.3302   -7.4461   17.8233 C   0  0  0  0  0  0  0  0  0  0  0  0
    2.2349  -10.4058   18.2158 C   0  0  0  0  0  0  0  0  0  0  0  0
    0.5286  -11.5326   18.2101 N   0  0  0  0  0  0  0  0  0  0  0  0
    6.8791   -6.6803   17.0165 N   0  0  0  0  0  0  0  0  0  0  0  0
    0.3179  -11.1152   16.8718 C   0  0  0  0  0  0  0  0  0  0  0  0
   11.0123   -4.5090   21.1806 C   0  0  0  0  0  0  0  0  0  0  0  0
    5.4803   -9.9974   15.6388 C   0  0  0  0  0  0  0  0  0  0  0  0
    5.3380   -8.9475   16.3219 C   0  0  0  0  0  0  0  0  0  0  0  0
   -0.7847  -11.6470   16.2105 C   0  0  0  0  0  0  0  0  0  0  0  0
    5.2763   -7.4014   16.9414 C   0  0  0  0  0  0  0  0  0  0  0  0
   -0.2933  -10.6513   14.1345 C   0  0  0  0  0  0  0  0  0  0  0  0
    5.9060   -8.8694   17.6753 C   0  0  0  0  0  0  0  0  0  0  0  0
    3.3827   -9.5685   17.8169 N   0  0  0  0  0  0  0  0  0  0  0  0
    2.4560   -9.0963   15.8528 N   0  0  0  0  0  0  0  0  0  0  0  0
   -1.0096  -11.4412   14.9159 C   0  0  0  0  0  0  0  0  0  0  0  0
    1.7063  -11.8045   20.1774 C   0  0  0  0  0  0  0  0  0  0  0  0
   10.6477   -3.3888   17.2305 C   0  0  0  0  0  0  0  0  0  0  0  0
    7.3953   -7.1249   16.6966 C   0  0  0  0  0  0  0  0  0  0  0  0
    9.6960   -8.0859   18.5375 O   0  0  0  0  0  0  0  0  0  0  0  0
    9.3207   -5.2514   16.7540 C   0  0  0  0  0  0  0  0  0  0  0  0
   11.1276   -2.8141   19.5427 N   0  0  0  0  0  0  0  0  0  0  0  0
    1.0674  -10.2476   16.2058 C   0  0  0  0  0  0  0  0  0  0  0  0
    8.1223   -5.7271   16.0575 C   0  0  0  0  0  0  0  0  0  0  0  0
   10.7415   -3.7385   18.5499 C   0  0  0  0  0  0  0  0  0  0  0  0
    1.3966  -11.3589   18.9778 C   0  0  0  0  0  0  0  0  0  0  0  0
   10.4545   -4.9683   18.8930 C   0  0  0  0  0  0  0  0  0  0  0  0
    8.3891   -7.5688   17.4013 C   0  0  0  0  0  0  0  0  0  0  0  0
   10.6231   -5.4071   20.2396 C   0  0  0  0  0  0  0  0  0  0  0  0
    9.8478   -4.0766   16.4041 C   0  0  0  0  0  0  0  0  0  0  0  0
    9.8781   -5.8020   17.8480 C   0  0  0  0  0  0  0  0  0  0  0  0
    2.3281   -9.8509   17.3157 C   0  0  0  0  0  0  0  0  0  0  0  0
    0.8274   -9.9126   14.6848 C   0  0  0  0  0  0  0  0  0  0  0  0
  1 10  1  0
  2  8  4  0
  2 23  4  0
  3 21  2  0
  3 29  4  0
  3 32  4  0
  4 15  1  0
  4 27  4  0
  4 33  4  0
  5  7  4  0
  5 27  4  0
  6 20  4  0
  7 11  4  0
  7 24  4  0
  8 30  4  0
  9 10  1  0
 10 14  1  0
 11 17  4  0
 13 17  4  0
 13 34  4  0
 15 33  1  0
 18 27  1  0
 19 26  4  0
 19 31  4  0
 20 25  4  0
 20 29  4  0
 22 25  4  0
 22 31  4  0
 22 32  4  0
 23 26  4  0
 24 33  4  0
 24 34  4  0
 26 28  4  0
 28 30  4  0
 28 32  4  0
M  END
$$$$

 Created by Python create_sdf_string function

 34 80  0  0  0  0  0  0  0  0999 V2000
    5.9280   -8.0021   16.0616 C   0  0  0  0  0  0  0  0  0  0  0  0
   11.0409   -3.2173   20.8797 C   0  0  0  0  0  0  0  0  0  0  0  0
    9.0583   -7.4496   17.6611 C   0  0  0  0  0  0  0  0  0  0  0  0
    2.4826   -9.1984   18.9523 N   0  0  0  0  0  0  0  0  0  0  0  0
    0.4637  -11.3813   18.3638 N   0  0  0  0  0  0  0  0  0  0  0  0
    0.5663  -10.9992   16.7627 C   0  0  0  0  0  0  0  0  0  0  0  0
   10.4939   -4.5814   21.4013 C   0  0  0  0  0  0  0  0  0  0  0  0
    5.0055  -10.4698   16.0216 C   0  0  0  0  0  0  0  0  0  0  0  0
    4.8856   -8.6438   15.9228 Cl  0  0  0  0  0  0  0  0  0  0  0  0
   -0.7419  -11.9533   15.9502 C   0  0  0  0  0  0  0  0  0  0  0  0
    5.5350   -7.2029   17.0830 C   0  0  0  0  0  0  0  0  0  0  0  0
   -0.3512  -10.4350   13.8342 C   0  0  0  0  0  0  0  0  0  0  0  0
    4.6259   -8.0958   17.5947 O   0  0  0  0  0  0  0  0  0  0  0  0
    3.6227   -9.1601   17.2226 N   0  0  0  0  0  0  0  0  0  0  0  0
   -1.1522  -11.1460   14.9615 C   0  0  0  0  0  0  0  0  0  0  0  0
    7.6116   -7.2329   16.4688 C   0  0  0  0  0  0  0  0  0  0  0  0
    8.3799   -7.6238   18.1367 F   0  0  0  0  0  0  0  0  0  0  0  0
   10.7629   -2.6028   19.7193 N   0  0  0  0  0  0  0  0  0  0  0  0
    1.1260  -10.3353   16.4651 F   0  0  0  0  0  0  0  0  0  0  0  0
    7.9924   -5.8002   16.0668 C   0  0  0  0  0  0  0  0  0  0  0  0
   10.5340   -3.6992   18.8526 C   0  0  0  0  0  0  0  0  0  0  0  0
    1.6829  -11.6649   18.8153 I   0  0  0  0  0  0  0  0  0  0  0  0
   10.6164   -5.2857   18.7302 C   0  0  0  0  0  0  0  0  0  0  0  0
    7.9294   -7.9994   17.6555 C   0  0  0  0  0  0  0  0  0  0  0  0
    9.9581   -3.5563   16.2549 C   0  0  0  0  0  0  0  0  0  0  0  0
    9.8416   -6.4675   17.5124 C   0  0  0  0  0  0  0  0  0  0  0  0
    1.7441   -9.1717   18.1710 C   0  0  0  0  0  0  0  0  0  0  0  0
    6.2599   -7.0185   16.0751 He  0  0  0  0  0  0  0  0  0  0  0  0
    1.1381   -8.5373   15.9258 He  0  0  0  0  0  0  0  0  0  0  0  0
    1.5466  -11.8185   20.6357 He  0  0  0  0  0  0  0  0  0  0  0  0
   10.7057   -3.5027   17.2814 He  0  0  0  0  0  0  0  0  0  0  0  0
    9.3455   -5.2682   16.7191 He  0  0  0  0  0  0  0  0  0  0  0  0
   10.9463   -5.4417   20.3039 He  0  0  0  0  0  0  0  0  0  0  0  0
    0.6890  -10.1358   14.9678 He  0  0  0  0  0  0  0  0  0  0  0  0
  1  7  3  0
  1  8  2  0
  1  9  2  0
  1 13  3  0
  1 14  4  0
  1 16  1  0
  1 18  4  0
  1 27  3  0
  2  7  4  0
  2  8  4  0
  2  9  2  0
  2 18  4  0
  2 23  1  0
  3  4  2  0
  3  7  3  0
  3 10  2  0
  3 13  3  0
  3 17  2  0
  3 24  3  0
  3 27  1  0
  4 16  3  0
  4 20  2  0
  4 22  4  0
  4 27  4  0
  5  6  4  0
  5  9  4  0
  5 22  4  0
  5 25  1  0
  5 27  2  0
  6 10  4  0
  6 13  3  0
  6 17  2  0
  6 19  4  0
  6 26  2  0
  7  9  4  0
  7 17  1  0
  8  9  1  0
  8 13  2  0
  8 22  2  0
  8 23  3  0
  8 27  3  0
  9 13  1  0
  9 14  3  0
  9 16  3  0
  9 19  3  0
  9 21  3  0
  9 27  2  0
 10 11  2  0
 10 17  4  0
 10 26  2  0
 10 27  3  0
 11 15  4  0
 11 18  2  0
 11 19  2  0
 11 22  1  0
 11 24  2  0
 11 25  4  0
 12 15  4  0
 12 17  2  0
 12 22  1  0
 13 16  3  0
 13 17  4  0
 13 21  3  0
 14 17  4  0
 14 26  1  0
 14 27  1  0
 15 17  1  0
 15 20  2  0
 15 26  4  0
 15 27  2  0
 16 20  4  0
 16 24  4  0
 18 21  4  0
 18 26  4  0
 19 27  4  0
 21 23  4  0
 22 24  4  0
 23 26  2  0
 24 26  3  0
 26 27  2  0
M  END
$$$$

 Created by Python create_sdf_string function

 34 38  0  0  0  0  0  0  0  0999 V2000
    6.0043   -8.4027   15.7416 C   0  0  0  0  0  0  0  0  0  0  0  0
   10.9688   -3.2855   20.9778 C   0  0  0  0  0  0  0  0  0  0  0  0
    9.3698   -7.1786   18.0536 C   0  0  0  0  0  0  0  0  0  0  0  0
    2.2891  -10.3738   18.6109 N   0  0  0  0  0  0  0  0  0  0  0  0
    0.5002  -11.6005   18.2846 N   0  0  0  0  0  0  0  0  0  0  0  0
    6.1483   -7.0855   15.9039 C   0  0  0  0  0  0  0  0  0  0  0  0
    0.2974  -11.1646   16.9178 C   0  0  0  0  0  0  0  0  0  0  0  0
   10.7860   -4.6585   21.2850 C   0  0  0  0  0  0  0  0  0  0  0  0
    5.0942   -9.7916   15.9985 C   0  0  0  0  0  0  0  0  0  0  0  0
    4.5139   -8.8852   16.2036 C   0  0  0  0  0  0  0  0  0  0  0  0
   -0.6959  -11.7327   16.1623 C   0  0  0  0  0  0  0  0  0  0  0  0
    5.6740   -7.4866   17.0514 C   0  0  0  0  0  0  0  0  0  0  0  0
   -0.2587  -10.5324   14.1854 C   0  0  0  0  0  0  0  0  0  0  0  0
    4.5780   -8.1562   17.6119 C   0  0  0  0  0  0  0  0  0  0  0  0
    3.0419   -8.9957   16.9613 N   0  0  0  0  0  0  0  0  0  0  0  0
    1.5735   -8.9378   15.6821 C   0  0  0  0  0  0  0  0  0  0  0  0
   -0.8939  -11.5049   14.9044 C   0  0  0  0  0  0  0  0  0  0  0  0
    1.4617  -11.7194   20.3355 N   0  0  0  0  0  0  0  0  0  0  0  0
   10.6037   -3.2878   17.3365 C   0  0  0  0  0  0  0  0  0  0  0  0
    7.5437   -6.8588   16.4120 C   0  0  0  0  0  0  0  0  0  0  0  0
    8.8082   -8.1850   18.1230 O   0  0  0  0  0  0  0  0  0  0  0  0
    9.3115   -5.1929   16.7456 C   0  0  0  0  0  0  0  0  0  0  0  0
   11.0265   -2.8669   19.6850 N   0  0  0  0  0  0  0  0  0  0  0  0
    1.1635  -10.1662   16.5152 C   0  0  0  0  0  0  0  0  0  0  0  0
    8.2403   -5.6969   16.0182 C   0  0  0  0  0  0  0  0  0  0  0  0
   10.6442   -3.7411   18.6571 C   0  0  0  0  0  0  0  0  0  0  0  0
    1.3699  -11.2423   19.0637 C   0  0  0  0  0  0  0  0  0  0  0  0
   10.3178   -5.0590   18.8757 C   0  0  0  0  0  0  0  0  0  0  0  0
    8.0128   -7.7700   17.3586 C   0  0  0  0  0  0  0  0  0  0  0  0
   10.5249   -5.5327   20.2770 C   0  0  0  0  0  0  0  0  0  0  0  0
    9.9024   -3.9985   16.4380 C   0  0  0  0  0  0  0  0  0  0  0  0
    9.7361   -5.7944   17.9112 C   0  0  0  0  0  0  0  0  0  0  0  0
    2.2455   -9.8681   17.4203 C   0  0  0  0  0  0  0  0  0  0  0  0
    0.6927   -9.7604   14.9270 C   0  0  0  0  0  0  0  0  0  0  0  0
  1  6  1  0
  1  9  1  0
  2  8  4  0
  2 23  4  0
  3 32  4  0
  4 27  4  0
  4 33  4  0
  5  7  4  0
  5 27  4  0
  6 12  1  0
  6 20  1  0
  7 11  4  0
  7 24  4  0
  8 30  4  0
  9 10  1  0
 10 14  1  0
 10 15  1  0
 11 17  4  0
 12 14  1  0
 13 17  4  0
 13 34  4  0
 15 16  1  0
 15 33  1  0
 16 34  4  0
 18 27  1  0
 19 26  4  0
 19 31  4  0
 20 25  4  0
 20 29  4  0
 22 25  4  0
 22 31  4  0
 22 32  4  0
 23 26  4  0
 24 33  4  0
 24 34  4  0
 26 28  4  0
 28 30  4  0
 28 32  4  0
M  END
$$$$

 Created by Python create_sdf_string function

 34 96  0  0  0  0  0  0  0  0999 V2000
    7.3434   -8.5112   15.2714 C   0  0  0  0  0  0  0  0  0  0  0  0
   11.0251   -3.2163   20.8224 S   0  0  0  0  0  0  0  0  0  0  0  0
    9.6793   -7.5818   17.8009 C   0  0  0  0  0  0  0  0  0  0  0  0
    1.5867  -11.6719   18.6287 O   0  0  0  0  0  0  0  0  0  0  0  0
    0.2937  -11.4954   18.1038 N   0  0  0  0  0  0  0  0  0  0  0  0
    0.4620  -11.4457   16.9335 C   0  0  0  0  0  0  0  0  0  0  0  0
   10.7363   -4.8956   21.2340 C   0  0  0  0  0  0  0  0  0  0  0  0
    4.7857   -8.7531   16.2962 N   0  0  0  0  0  0  0  0  0  0  0  0
   -0.7696  -11.8714   16.4740 C   0  0  0  0  0  0  0  0  0  0  0  0
    5.4979   -8.5020   16.8944 C   0  0  0  0  0  0  0  0  0  0  0  0
   -0.4354  -10.2661   14.6851 C   0  0  0  0  0  0  0  0  0  0  0  0
    4.3785   -8.5890   18.1164 C   0  0  0  0  0  0  0  0  0  0  0  0
    3.3653   -8.8376   17.3218 N   0  0  0  0  0  0  0  0  0  0  0  0
   -0.7857  -11.5755   14.8246 C   0  0  0  0  0  0  0  0  0  0  0  0
    1.2545  -11.4472   19.2825 N   0  0  0  0  0  0  0  0  0  0  0  0
   10.8879   -3.5937   17.4911 C   0  0  0  0  0  0  0  0  0  0  0  0
    7.6409   -6.8098   16.3601 C   0  0  0  0  0  0  0  0  0  0  0  0
    9.3841   -5.1230   16.7703 C   0  0  0  0  0  0  0  0  0  0  0  0
   11.2589   -2.8575   19.6495 N   0  0  0  0  0  0  0  0  0  0  0  0
    1.2816  -10.0626   16.1478 C   0  0  0  0  0  0  0  0  0  0  0  0
    8.4476   -5.3661   16.1204 C   0  0  0  0  0  0  0  0  0  0  0  0
   10.3207   -3.8094   18.7338 C   0  0  0  0  0  0  0  0  0  0  0  0
    1.4245  -11.5401   18.8502 C   0  0  0  0  0  0  0  0  0  0  0  0
   10.1557   -4.7107   19.1012 C   0  0  0  0  0  0  0  0  0  0  0  0
    8.0560   -6.9563   17.3376 C   0  0  0  0  0  0  0  0  0  0  0  0
   10.8289   -5.6987   20.7642 C   0  0  0  0  0  0  0  0  0  0  0  0
    9.8482   -4.0559   16.5147 C   0  0  0  0  0  0  0  0  0  0  0  0
    9.6255   -5.5923   17.8230 C   0  0  0  0  0  0  0  0  0  0  0  0
    2.0015   -9.7481   17.2195 C   0  0  0  0  0  0  0  0  0  0  0  0
    0.4583   -9.6957   15.1150 C   0  0  0  0  0  0  0  0  0  0  0  0
    5.5699   -6.5553   15.6957 He  0  0  0  0  0  0  0  0  0  0  0  0
    5.3353   -9.9018   15.8435 He  0  0  0  0  0  0  0  0  0  0  0  0
    1.4601   -9.1743   15.6883 He  0  0  0  0  0  0  0  0  0  0  0  0
    8.3228   -8.4301   18.0170 He  0  0  0  0  0  0  0  0  0  0  0  0
  1  3  2  0
  1  7  4  0
  1 18  4  0
  1 23  3  0
  1 29  2  0
  2  7  2  0
  2  8  1  0
  2 10  3  0
  2 17  1  0
  2 18  2  0
  2 19  4  0
  2 21  3  0
  2 27  3  0
  3  7  4  0
  3  8  3  0
  3 12  2  0
  3 14  2  0
  3 18  3  0
  3 20  1  0
  3 28  4  0
  4  6  4  0
  4 18  1  0
  4 26  2  0
  4 29  4  0
  4 30  2  0
  5  6  4  0
  5 13  4  0
  5 23  2  0
  5 24  3  0
  5 25  1  0
  5 26  4  0
  5 29  1  0
  6  9  4  0
  6 15  2  0
  6 20  4  0
  6 24  3  0
  7 11  4  0
  7 17  2  0
  7 26  4  0
  8 12  1  0
  8 13  1  0
  9 14  4  0
  9 16  2  0
  9 21  3  0
  9 27  4  0
 10 12  1  0
 10 25  2  0
 10 26  4  0
 10 27  4  0
 10 28  2  0
 10 30  1  0
 11 12  4  0
 11 13  4  0
 11 14  4  0
 11 25  2  0
 11 30  4  0
 12 15  4  0
 12 26  2  0
 12 27  2  0
 13 14  3  0
 13 21  3  0
 13 25  1  0
 13 27  4  0
 13 28  3  0
 13 29  1  0
 13 30  2  0
 14 16  1  0
 14 25  4  0
 15 16  1  0
 15 23  4  0
 15 29  1  0
 15 30  4  0
 16 22  4  0
 16 26  4  0
 16 27  4  0
 17 18  3  0
 17 21  3  0
 17 24  1  0
 18 19  2  0
 18 21  4  0
 18 27  4  0
 18 28  4  0
 19 22  4  0
 19 24  3  0
 19 28  4  0
 21 26  2  0
 22 24  4  0
 22 25  2  0
 22 30  2  0
 23 27  4  0
 24 26  2  0
 24 28  3  0
 25 27  1  0
 25 28  1  0
 25 29  2  0
 28 30  4  0
M  END
$$$$

 Created by Python create_sdf_string function

 34 40  0  0  0  0  0  0  0  0999 V2000
    6.6023   -8.6482   15.3993 C   0  0  0  0  0  0  0  0  0  0  0  0
   11.1938   -3.4353   21.1160 C   0  0  0  0  0  0  0  0  0  0  0  0
    9.2562   -7.0389   18.1390 C   0  0  0  0  0  0  0  0  0  0  0  0
    2.4375  -10.4360   18.4704 N   0  0  0  0  0  0  0  0  0  0  0  0
    0.4370  -11.7145   18.3052 N   0  0  0  0  0  0  0  0  0  0  0  0
    6.3693   -7.3151   16.0115 C   0  0  0  0  0  0  0  0  0  0  0  0
    0.2277  -11.3180   17.0397 C   0  0  0  0  0  0  0  0  0  0  0  0
   10.8850   -4.7895   21.3982 C   0  0  0  0  0  0  0  0  0  0  0  0
    5.3600   -9.4588   15.5620 C   0  0  0  0  0  0  0  0  0  0  0  0
    4.2808   -9.0038   16.5346 N   0  0  0  0  0  0  0  0  0  0  0  0
   -0.6912  -11.8681   16.2819 C   0  0  0  0  0  0  0  0  0  0  0  0
    5.8996   -7.7084   17.3492 C   0  0  0  0  0  0  0  0  0  0  0  0
   -0.3795  -10.3753   14.5124 C   0  0  0  0  0  0  0  0  0  0  0  0
    5.1156   -8.5648   17.7726 C   0  0  0  0  0  0  0  0  0  0  0  0
    3.1671   -9.1619   17.0204 N   0  0  0  0  0  0  0  0  0  0  0  0
    1.4123   -8.9823   15.2981 F   0  0  0  0  0  0  0  0  0  0  0  0
   -1.0208  -11.4296   15.0091 C   0  0  0  0  0  0  0  0  0  0  0  0
    1.8171  -11.5897   19.9276 N   0  0  0  0  0  0  0  0  0  0  0  0
   10.7139   -3.2195   17.4753 C   0  0  0  0  0  0  0  0  0  0  0  0
    7.6632   -6.7159   16.4318 C   0  0  0  0  0  0  0  0  0  0  0  0
    7.7649   -8.5288   17.7848 C   0  0  0  0  0  0  0  0  0  0  0  0
    9.3318   -5.0130   16.8462 C   0  0  0  0  0  0  0  0  0  0  0  0
   11.1405   -2.9205   19.8777 N   0  0  0  0  0  0  0  0  0  0  0  0
    1.0380  -10.3709   16.5142 C   0  0  0  0  0  0  0  0  0  0  0  0
    8.2712   -5.5095   16.0856 C   0  0  0  0  0  0  0  0  0  0  0  0
   10.7570   -3.7186   18.7783 C   0  0  0  0  0  0  0  0  0  0  0  0
    1.5096  -11.3140   19.0492 C   0  0  0  0  0  0  0  0  0  0  0  0
   10.3443   -5.0008   19.0057 C   0  0  0  0  0  0  0  0  0  0  0  0
    8.2766   -7.4238   17.4246 C   0  0  0  0  0  0  0  0  0  0  0  0
   10.4789   -5.5811   20.2996 C   0  0  0  0  0  0  0  0  0  0  0  0
    9.9830   -3.8699   16.5277 C   0  0  0  0  0  0  0  0  0  0  0  0
    9.7247   -5.6503   17.9855 C   0  0  0  0  0  0  0  0  0  0  0  0
    2.2052  -10.0050   17.3775 C   0  0  0  0  0  0  0  0  0  0  0  0
    0.6322   -9.8613   15.3295 C   0  0  0  0  0  0  0  0  0  0  0  0
  1  6  1  0
  1  9  1  0
  2  8  4  0
  2 23  4  0
  3 29  4  0
  3 32  4  0
  4 27  4  0
  4 33  4  0
  5  7  4  0
  5 27  4  0
  6 12  1  0
  6 20  1  0
  7 11  4  0
  7 24  4  0
  8 30  4  0
  9 10  1  0
 10 14  1  0
 10 15  1  0
 11 17  4  0
 12 14  1  0
 12 21  1  0
 13 17  4  0
 13 34  4  0
 15 33  1  0
 16 34  1  0
 18 27  4  0
 19 26  4  0
 19 31  4  0
 20 25  4  0
 20 29  4  0
 21 29  1  0
 22 25  4  0
 22 31  4  0
 22 32  4  0
 23 26  4  0
 24 33  4  0
 24 34  4  0
 26 28  4  0
 28 30  4  0
 28 32  4  0
M  END
$$$$

 Created by Python create_sdf_string function

 34 87  0  0  0  0  0  0  0  0999 V2000
    6.8563   -8.6656   15.3072 C   0  0  0  0  0  0  0  0  0  0  0  0
   11.3535   -3.4854   21.4882 C   0  0  0  0  0  0  0  0  0  0  0  0
    9.7445   -7.1499   16.9029 C   0  0  0  0  0  0  0  0  0  0  0  0
    2.2480  -10.5814   18.2594 N   0  0  0  0  0  0  0  0  0  0  0  0
    0.4731  -12.0385   18.0692 N   0  0  0  0  0  0  0  0  0  0  0  0
    0.1022  -11.0506   16.8951 C   0  0  0  0  0  0  0  0  0  0  0  0
    6.2640  -10.1050   15.1968 S   0  0  0  0  0  0  0  0  0  0  0  0
    3.5235   -9.5052   16.4484 N   0  0  0  0  0  0  0  0  0  0  0  0
   -0.8019  -12.2023   16.1181 C   0  0  0  0  0  0  0  0  0  0  0  0
    6.2683   -6.4827   17.3025 C   0  0  0  0  0  0  0  0  0  0  0  0
   -0.2719  -10.1359   14.7105 C   0  0  0  0  0  0  0  0  0  0  0  0
    4.1749   -9.0212   17.9190 N   0  0  0  0  0  0  0  0  0  0  0  0
    3.1169   -9.8778   17.4556 N   0  0  0  0  0  0  0  0  0  0  0  0
    2.1466   -8.2544   16.0718 F   0  0  0  0  0  0  0  0  0  0  0  0
   -0.8043  -11.3037   14.8368 C   0  0  0  0  0  0  0  0  0  0  0  0
   10.6860   -3.4175   17.1962 C   0  0  0  0  0  0  0  0  0  0  0  0
    7.7056   -6.8206   16.0482 C   0  0  0  0  0  0  0  0  0  0  0  0
    8.1596   -8.9822   17.0143 F   0  0  0  0  0  0  0  0  0  0  0  0
    9.4963   -5.0955   17.0128 C   0  0  0  0  0  0  0  0  0  0  0  0
   11.1005   -3.2900   19.7951 N   0  0  0  0  0  0  0  0  0  0  0  0
    0.7930  -10.4606   16.5425 C   0  0  0  0  0  0  0  0  0  0  0  0
   10.7694   -3.3783   18.7685 C   0  0  0  0  0  0  0  0  0  0  0  0
    1.9669  -11.0943   19.2234 C   0  0  0  0  0  0  0  0  0  0  0  0
   10.4171   -4.9958   18.9360 C   0  0  0  0  0  0  0  0  0  0  0  0
    8.3255   -7.3761   18.1976 C   0  0  0  0  0  0  0  0  0  0  0  0
   10.5490   -5.4596   19.4700 C   0  0  0  0  0  0  0  0  0  0  0  0
   10.2324   -4.0983   16.4036 C   0  0  0  0  0  0  0  0  0  0  0  0
    1.7038  -10.7499   16.7882 C   0  0  0  0  0  0  0  0  0  0  0  0
    0.7009   -9.8522   15.4747 C   0  0  0  0  0  0  0  0  0  0  0  0
    6.7658   -7.2314   15.7868 He  0  0  0  0  0  0  0  0  0  0  0  0
   11.1067   -4.6980   21.8763 He  0  0  0  0  0  0  0  0  0  0  0  0
    0.8889  -11.7510   20.1740 He  0  0  0  0  0  0  0  0  0  0  0  0
    8.4268   -5.5858   16.3680 He  0  0  0  0  0  0  0  0  0  0  0  0
    9.2357   -5.1301   17.9648 He  0  0  0  0  0  0  0  0  0  0  0  0
  1  7  1  0
  1 10  3  0
  1 12  4  0
  1 15  3  0
  1 17  2  0
  1 19  4  0
  1 24  1  0
  1 27  4  0
  2  4  1  0
  2  9  3  0
  2 12  2  0
  2 20  4  0
  3 13  3  0
  3 26  2  0
  3 28  3  0
  4  7  1  0
  4 18  4  0
  4 20  4  0
  4 23  4  0
  5  6  4  0
  5  9  2  0
  5 10  3  0
  5 12  3  0
  5 18  1  0
  5 23  4  0
  5 28  1  0
  6  8  1  0
  6 13  2  0
  6 21  4  0
  6 23  4  0
  6 25  3  0
  6 28  2  0
  8 12  2  0
  8 16  2  0
  8 17  2  0
  8 18  3  0
  9 15  4  0
 10 15  3  0
 10 18  2  0
 10 19  2  0
 10 20  1  0
 10 21  1  0
 10 23  3  0
 10 24  1  0
 10 29  1  0
 11 15  4  0
 11 23  1  0
 11 26  1  0
 11 29  4  0
 12 15  2  0
 12 19  2  0
 12 28  3  0
 13 14  1  0
 13 20  1  0
 13 21  3  0
 13 26  3  0
 13 28  1  0
 13 29  2  0
 14 16  2  0
 14 20  2  0
 14 21  3  0
 14 24  2  0
 14 27  4  0
 14 28  3  0
 14 29  1  0
 15 19  4  0
 15 28  2  0
 16 17  3  0
 16 22  4  0
 16 23  3  0
 16 27  4  0
 17 25  4  0
 17 26  3  0
 18 20  3  0
 18 21  1  0
 18 27  2  0
 19 25  1  0
 19 27  4  0
 20 25  3  0
 21 23  1  0
 21 28  4  0
 21 29  4  0
 22 24  4  0
 23 25  3  0
 24 26  3  0
 26 28  1  0
 28 29  1  0
M  END
$$$$

 Created by Python create_sdf_string function

 34 39  0  0  0  0  0  0  0  0999 V2000
    6.8203   -8.6041   15.3934 C   0  0  0  0  0  0  0  0  0  0  0  0
   11.2905   -3.4571   21.1586 C   0  0  0  0  0  0  0  0  0  0  0  0
    9.5076   -7.0088   18.0599 C   0  0  0  0  0  0  0  0  0  0  0  0
    2.2051  -10.6662   18.6498 N   0  0  0  0  0  0  0  0  0  0  0  0
    0.3631  -11.9406   18.2638 N   0  0  0  0  0  0  0  0  0  0  0  0
    6.6644   -7.3059   16.0075 C   0  0  0  0  0  0  0  0  0  0  0  0
    0.2230  -11.4352   17.0219 C   0  0  0  0  0  0  0  0  0  0  0  0
   10.9608   -4.7724   21.4124 C   0  0  0  0  0  0  0  0  0  0  0  0
    5.7634   -9.6767   15.6789 C   0  0  0  0  0  0  0  0  0  0  0  0
    4.2351   -9.2961   16.5065 N   0  0  0  0  0  0  0  0  0  0  0  0
   -0.7267  -11.9355   16.1232 C   0  0  0  0  0  0  0  0  0  0  0  0
    5.7620   -7.4647   17.1584 C   0  0  0  0  0  0  0  0  0  0  0  0
   -0.2676  -10.2914   14.5158 C   0  0  0  0  0  0  0  0  0  0  0  0
    4.8404   -8.3281   17.3002 C   0  0  0  0  0  0  0  0  0  0  0  0
    3.0106   -9.1950   16.9030 N   0  0  0  0  0  0  0  0  0  0  0  0
    2.5544   -8.1382   16.3029 C   0  0  0  0  0  0  0  0  0  0  0  0
   -0.9704  -11.3588   14.8903 C   0  0  0  0  0  0  0  0  0  0  0  0
    1.2794  -11.8738   20.3838 N   0  0  0  0  0  0  0  0  0  0  0  0
   10.7904   -3.1808   17.5155 C   0  0  0  0  0  0  0  0  0  0  0  0
    7.8704   -6.7031   16.4080 C   0  0  0  0  0  0  0  0  0  0  0  0
    8.3090   -8.8516   17.2599 F   0  0  0  0  0  0  0  0  0  0  0  0
    9.4479   -4.9887   16.8502 C   0  0  0  0  0  0  0  0  0  0  0  0
   11.2101   -2.9326   19.9406 N   0  0  0  0  0  0  0  0  0  0  0  0
    1.0252  -10.4604   16.5863 C   0  0  0  0  0  0  0  0  0  0  0  0
    8.3845   -5.5034   16.0744 N   0  0  0  0  0  0  0  0  0  0  0  0
   10.8540   -3.6914   18.8194 C   0  0  0  0  0  0  0  0  0  0  0  0
    1.2757  -11.4786   19.1111 C   0  0  0  0  0  0  0  0  0  0  0  0
   10.3927   -5.0011   19.0127 C   0  0  0  0  0  0  0  0  0  0  0  0
    8.5664   -7.4923   17.2377 C   0  0  0  0  0  0  0  0  0  0  0  0
   10.5561   -5.5580   20.3147 C   0  0  0  0  0  0  0  0  0  0  0  0
   10.0881   -3.8555   16.5273 C   0  0  0  0  0  0  0  0  0  0  0  0
    9.8485   -5.6408   17.9678 C   0  0  0  0  0  0  0  0  0  0  0  0
    2.0859  -10.1271   17.4568 C   0  0  0  0  0  0  0  0  0  0  0  0
    0.7205   -9.7820   15.3762 C   0  0  0  0  0  0  0  0  0  0  0  0
  1  6  1  0
  1  9  1  0
  2  8  4  0
  2 23  4  0
  3 29  4  0
  3 32  4  0
  4 27  4  0
  4 33  4  0
  5  7  4  0
  5 27  4  0
  6 12  1  0
  6 20  1  0
  7 11  4  0
  7 24  4  0
  8 30  4  0
  9 10  1  0
 10 14  1  0
 10 15  1  0
 11 17  4  0
 12 14  1  0
 13 17  4  0
 13 34  4  0
 15 16  1  0
 15 33  1  0
 18 27  1  0
 19 26  4  0
 19 31  4  0
 20 25  4  0
 20 29  4  0
 21 29  1  0
 22 25  4  0
 22 31  4  0
 22 32  4  0
 23 26  4  0
 24 33  4  0
 24 34  4  0
 26 28  4  0
 28 30  4  0
 28 32  4  0
M  END
$$$$

 Created by Python create_sdf_string function

 34109  0  0  0  0  0  0  0  0999 V2000
   11.2594   -3.7226   21.4784 C   0  0  0  0  0  0  0  0  0  0  0  0
    9.3809   -7.1220   18.3020 F   0  0  0  0  0  0  0  0  0  0  0  0
    2.4993  -10.4824   18.7252 N   0  0  0  0  0  0  0  0  0  0  0  0
    0.7136  -11.9482   18.4753 C   0  0  0  0  0  0  0  0  0  0  0  0
    7.2265   -7.2290   16.3252 C   0  0  0  0  0  0  0  0  0  0  0  0
    0.1076  -11.4176   16.8866 C   0  0  0  0  0  0  0  0  0  0  0  0
   11.0162   -4.6140   21.4858 C   0  0  0  0  0  0  0  0  0  0  0  0
    5.2060   -9.1771   16.0945 S   0  0  0  0  0  0  0  0  0  0  0  0
    4.1646   -9.3200   16.4476 O   0  0  0  0  0  0  0  0  0  0  0  0
   -0.6719  -12.0799   15.9560 C   0  0  0  0  0  0  0  0  0  0  0  0
    5.7092   -7.2118   17.2037 C   0  0  0  0  0  0  0  0  0  0  0  0
   -0.2174  -10.4073   14.4706 C   0  0  0  0  0  0  0  0  0  0  0  0
    2.0363   -9.0204   16.6041 O   0  0  0  0  0  0  0  0  0  0  0  0
    2.9759   -7.5517   15.8284 C   0  0  0  0  0  0  0  0  0  0  0  0
   -0.9859  -10.6103   14.8894 C   0  0  0  0  0  0  0  0  0  0  0  0
    1.7280  -11.6337   20.4325 N   0  0  0  0  0  0  0  0  0  0  0  0
   10.9371   -3.0591   17.3379 C   0  0  0  0  0  0  0  0  0  0  0  0
    8.1460   -6.9732   16.8125 F   0  0  0  0  0  0  0  0  0  0  0  0
    8.5403   -8.9357   16.7957 F   0  0  0  0  0  0  0  0  0  0  0  0
    9.0711   -4.6879   16.9745 C   0  0  0  0  0  0  0  0  0  0  0  0
   11.1489   -2.6204   20.0233 N   0  0  0  0  0  0  0  0  0  0  0  0
    1.0034  -10.3837   16.1632 C   0  0  0  0  0  0  0  0  0  0  0  0
    8.4591   -4.9889   16.4269 C   0  0  0  0  0  0  0  0  0  0  0  0
   10.6130   -3.9939   19.2591 C   0  0  0  0  0  0  0  0  0  0  0  0
    1.2877  -11.6715   18.9629 C   0  0  0  0  0  0  0  0  0  0  0  0
   10.2516   -5.1606   19.1658 C   0  0  0  0  0  0  0  0  0  0  0  0
    9.0367   -7.6031   17.7775 C   0  0  0  0  0  0  0  0  0  0  0  0
   10.9931   -5.8034   20.2927 C   0  0  0  0  0  0  0  0  0  0  0  0
    9.5255   -3.9254   16.5927 C   0  0  0  0  0  0  0  0  0  0  0  0
    9.4677   -5.5056   17.6397 C   0  0  0  0  0  0  0  0  0  0  0  0
    0.5185   -9.5690   15.4501 C   0  0  0  0  0  0  0  0  0  0  0  0
    6.8672   -8.9283   15.1744 He  0  0  0  0  0  0  0  0  0  0  0  0
    5.2544   -8.1439   16.8958 He  0  0  0  0  0  0  0  0  0  0  0  0
    2.5072  -10.3414   17.9870 He  0  0  0  0  0  0  0  0  0  0  0  0
  1  4  2  0
  1  7  4  0
  1  8  4  0
  1 11  3  0
  1 13  1  0
  1 19  2  0
  1 21  4  0
  1 23  1  0
  2  3  2  0
  2  7  3  0
  2 13  4  0
  2 16  1  0
  2 17  4  0
  2 19  1  0
  2 22  4  0
  2 25  1  0
  2 27  4  0
  2 30  4  0
  3 13  3  0
  3 18  3  0
  3 21  4  0
  3 25  4  0
  3 29  3  0
  3 30  4  0
  4 11  3  0
  4 21  2  0
  4 25  4  0
  4 27  4  0
  4 30  2  0
  5 11  1  0
  5 17  4  0
  5 18  1  0
  5 21  3  0
  5 25  1  0
  5 27  4  0
  5 30  4  0
  6 10  4  0
  6 14  3  0
  6 16  4  0
  6 22  4  0
  7  8  2  0
  7 11  4  0
  7 12  1  0
  7 13  2  0
  7 21  4  0
  7 28  4  0
  8  9  1  0
  8 10  2  0
  8 13  4  0
  8 26  3  0
  8 27  4  0
  8 30  3  0
  8 31  4  0
  9 14  2  0
  9 16  4  0
  9 17  4  0
  9 18  2  0
  9 19  4  0
  9 22  4  0
  9 23  2  0
  9 30  1  0
 10 16  3  0
 10 19  2  0
 10 24  3  0
 10 30  3  0
 11 14  1  0
 11 17  1  0
 11 19  4  0
 11 20  1  0
 11 23  1  0
 11 24  1  0
 12 15  4  0
 12 16  3  0
 12 26  3  0
 12 31  4  0
 13 14  1  0
 13 19  2  0
 13 26  2  0
 13 31  4  0
 14 18  4  0
 14 21  1  0
 14 26  2  0
 14 27  2  0
 15 16  2  0
 15 18  1  0
 16 17  4  0
 16 21  3  0
 16 23  1  0
 16 25  3  0
 16 26  3  0
 16 28  4  0
 16 31  4  0
 17 24  4  0
 17 30  3  0
 18 23  4  0
 18 26  1  0
 18 27  4  0
 19 20  4  0
 19 30  4  0
 19 31  4  0
 20 23  4  0
 20 30  2  0
 21 24  4  0
 23 29  3  0
 23 30  4  0
 24 26  4  0
 25 31  3  0
 26 28  4  0
 26 30  4  0
M  END
$$$$

 Created by Python create_sdf_string function

 34 39  0  0  0  0  0  0  0  0999 V2000
    6.6626   -8.7881   15.5527 C   0  0  0  0  0  0  0  0  0  0  0  0
   11.3174   -3.4482   21.3186 C   0  0  0  0  0  0  0  0  0  0  0  0
    9.5349   -7.0406   18.2612 N   0  0  0  0  0  0  0  0  0  0  0  0
    2.3579  -10.6425   18.5280 N   0  0  0  0  0  0  0  0  0  0  0  0
    0.4923  -11.9099   18.1949 N   0  0  0  0  0  0  0  0  0  0  0  0
    6.7783   -7.5247   16.1474 C   0  0  0  0  0  0  0  0  0  0  0  0
    0.2570  -11.3778   16.9517 C   0  0  0  0  0  0  0  0  0  0  0  0
   11.0921   -4.7994   21.5243 C   0  0  0  0  0  0  0  0  0  0  0  0
    5.2630   -9.3871   15.6568 C   0  0  0  0  0  0  0  0  0  0  0  0
    4.3021   -9.1573   16.6590 N   0  0  0  0  0  0  0  0  0  0  0  0
   -0.7571  -11.7905   16.1258 C   0  0  0  0  0  0  0  0  0  0  0  0
    5.7547   -7.2793   17.1389 C   0  0  0  0  0  0  0  0  0  0  0  0
   -0.3824  -10.1595   14.4901 C   0  0  0  0  0  0  0  0  0  0  0  0
    4.7698   -8.0142   17.1397 C   0  0  0  0  0  0  0  0  0  0  0  0
    2.5012   -8.9145   16.8966 N   0  0  0  0  0  0  0  0  0  0  0  0
    3.0050   -8.0353   16.3227 C   0  0  0  0  0  0  0  0  0  0  0  0
   -1.0415  -11.2379   14.9041 C   0  0  0  0  0  0  0  0  0  0  0  0
    1.4502  -12.0190   20.3178 N   0  0  0  0  0  0  0  0  0  0  0  0
   10.6636   -3.0740   17.6964 C   0  0  0  0  0  0  0  0  0  0  0  0
    8.0018   -6.9281   16.6245 C   0  0  0  0  0  0  0  0  0  0  0  0
    8.7742   -8.8982   17.3270 F   0  0  0  0  0  0  0  0  0  0  0  0
    9.3644   -4.9524   17.0403 C   0  0  0  0  0  0  0  0  0  0  0  0
   11.2230   -2.9033   20.0992 N   0  0  0  0  0  0  0  0  0  0  0  0
    1.0637  -10.3641   16.5162 C   0  0  0  0  0  0  0  0  0  0  0  0
    8.2872   -5.5804   16.3569 C   0  0  0  0  0  0  0  0  0  0  0  0
   10.7693   -3.6261   18.9928 C   0  0  0  0  0  0  0  0  0  0  0  0
    1.4493  -11.5264   18.9871 C   0  0  0  0  0  0  0  0  0  0  0  0
   10.4172   -4.9344   19.1320 C   0  0  0  0  0  0  0  0  0  0  0  0
    8.7216   -7.6623   17.4134 C   0  0  0  0  0  0  0  0  0  0  0  0
   10.6428   -5.5406   20.4678 C   0  0  0  0  0  0  0  0  0  0  0  0
    9.9160   -3.6927   16.7506 C   0  0  0  0  0  0  0  0  0  0  0  0
    9.8010   -5.5809   18.1217 C   0  0  0  0  0  0  0  0  0  0  0  0
    2.1061  -10.0248   17.3569 C   0  0  0  0  0  0  0  0  0  0  0  0
    0.7035   -9.7497   15.2142 C   0  0  0  0  0  0  0  0  0  0  0  0
  1  6  1  0
  1  9  1  0
  2  8  4  0
  2 23  4  0
  3 29  4  0
  3 32  4  0
  4 27  4  0
  4 33  4  0
  5  7  4  0
  5 27  4  0
  6 12  1  0
  6 20  1  0
  7 11  4  0
  7 24  4  0
  8 30  4  0
  9 10  1  0
 10 14  1  0
 11 17  4  0
 12 14  1  0
 13 17  4  0
 13 34  4  0
 14 16  1  0
 15 16  1  0
 15 33  1  0
 18 27  1  0
 19 26  4  0
 19 31  4  0
 20 25  4  0
 20 29  4  0
 21 29  1  0
 22 25  4  0
 22 31  4  0
 22 32  4  0
 23 26  4  0
 24 33  4  0
 24 34  4  0
 26 28  4  0
 28 30  4  0
 28 32  4  0
M  END
$$$$

 Created by Python create_sdf_string function

 34 76  0  0  0  0  0  0  0  0999 V2000
    6.5811   -9.6125   16.4018 C   0  0  0  0  0  0  0  0  0  0  0  0
   11.2087   -3.1338   21.6308 C   0  0  0  0  0  0  0  0  0  0  0  0
    9.1057   -7.5601   18.6485 N   0  0  0  0  0  0  0  0  0  0  0  0
    1.8190  -10.9107   19.0078 N   0  0  0  0  0  0  0  0  0  0  0  0
    0.7252  -11.4236   17.1011 C   0  0  0  0  0  0  0  0  0  0  0  0
    5.3777   -8.4995   15.9889 C   0  0  0  0  0  0  0  0  0  0  0  0
    4.7700   -8.2327   16.5805 Cl  0  0  0  0  0  0  0  0  0  0  0  0
   -0.4968  -11.5965   16.3988 C   0  0  0  0  0  0  0  0  0  0  0  0
   -0.2477   -9.6978   14.7425 C   0  0  0  0  0  0  0  0  0  0  0  0
    2.5952   -8.7937   16.9778 N   0  0  0  0  0  0  0  0  0  0  0  0
    3.4394   -8.8261   16.1698 C   0  0  0  0  0  0  0  0  0  0  0  0
   -0.9441  -11.4611   14.7463 C   0  0  0  0  0  0  0  0  0  0  0  0
   10.8850   -3.3513   17.5392 C   0  0  0  0  0  0  0  0  0  0  0  0
    7.9478   -6.7880   16.5829 C   0  0  0  0  0  0  0  0  0  0  0  0
    9.3036   -8.6474   18.0306 F   0  0  0  0  0  0  0  0  0  0  0  0
    9.1447   -4.7033   16.9380 C   0  0  0  0  0  0  0  0  0  0  0  0
   11.5425   -2.9484   19.6839 N   0  0  0  0  0  0  0  0  0  0  0  0
    0.9772  -10.3486   16.5797 C   0  0  0  0  0  0  0  0  0  0  0  0
    8.2555   -5.6133   16.4479 C   0  0  0  0  0  0  0  0  0  0  0  0
   11.2082   -3.8092   19.2764 C   0  0  0  0  0  0  0  0  0  0  0  0
    1.5489  -11.5112   18.9409 C   0  0  0  0  0  0  0  0  0  0  0  0
   10.2203   -4.9421   19.0703 C   0  0  0  0  0  0  0  0  0  0  0  0
    8.5704   -7.9484   18.0673 Cl  0  0  0  0  0  0  0  0  0  0  0  0
   10.6146   -5.3656   20.7578 F   0  0  0  0  0  0  0  0  0  0  0  0
   10.1688   -3.7129   16.5822 C   0  0  0  0  0  0  0  0  0  0  0  0
    9.7609   -5.8375   17.7649 C   0  0  0  0  0  0  0  0  0  0  0  0
    0.5508   -9.6878   14.9722 C   0  0  0  0  0  0  0  0  0  0  0  0
    0.1761  -11.6701   18.4274 He  0  0  0  0  0  0  0  0  0  0  0  0
    6.0571   -7.3022   16.3150 He  0  0  0  0  0  0  0  0  0  0  0  0
   11.0304   -4.6124   21.4384 He  0  0  0  0  0  0  0  0  0  0  0  0
    5.1239   -7.4557   17.2304 He  0  0  0  0  0  0  0  0  0  0  0  0
    5.0423   -8.7058   17.4704 He  0  0  0  0  0  0  0  0  0  0  0  0
    1.3731  -12.6288   20.2443 He  0  0  0  0  0  0  0  0  0  0  0  0
    1.0397  -10.1503   16.7960 He  0  0  0  0  0  0  0  0  0  0  0  0
  1  6  4  0
  1 11  2  0
  1 14  3  0
  1 16  1  0
  1 17  4  0
  1 22  3  0
  1 23  4  0
  2 15  1  0
  2 16  2  0
  2 17  4  0
  2 23  3  0
  2 25  3  0
  3  5  3  0
  3 13  2  0
  3 23  4  0
  4  5  4  0
  4 11  1  0
  4 13  3  0
  4 16  2  0
  4 20  2  0
  4 21  4  0
  4 26  3  0
  5  7  1  0
  5  8  4  0
  5 12  4  0
  5 15  3  0
  5 18  1  0
  5 24  1  0
  6  7  1  0
  6 15  1  0
  6 16  4  0
  6 17  4  0
  6 19  1  0
  6 20  4  0
  7 17  2  0
  7 21  2  0
  8 12  4  0
  8 20  3  0
  9 12  4  0
  9 27  4  0
 10 11  3  0
 10 15  3  0
 10 19  3  0
 10 20  3  0
 10 27  3  0
 11 14  2  0
 11 27  4  0
 12 14  3  0
 12 15  3  0
 12 21  3  0
 13 18  1  0
 13 20  4  0
 13 25  4  0
 14 15  3  0
 14 19  4  0
 15 18  2  0
 15 22  4  0
 15 23  1  0
 15 26  1  0
 16 19  4  0
 16 26  4  0
 17 20  2  0
 18 24  3  0
 18 27  4  0
 19 23  1  0
 20 21  4  0
 20 22  2  0
 20 23  4  0
 20 24  3  0
 22 24  4  0
 22 25  2  0
 22 26  4  0
 23 24  3  0
 23 27  1  0
 25 26  2  0
 26 27  2  0
M  END
$$$$

 Created by Python create_sdf_string function

 34 39  0  0  0  0  0  0  0  0999 V2000
    6.7475   -9.2153   16.1388 C   0  0  0  0  0  0  0  0  0  0  0  0
   11.3811   -3.3540   21.2889 C   0  0  0  0  0  0  0  0  0  0  0  0
    9.4173   -7.0622   18.4360 N   0  0  0  0  0  0  0  0  0  0  0  0
    2.1210  -10.6109   18.6830 N   0  0  0  0  0  0  0  0  0  0  0  0
    0.3550  -11.9630   18.2297 N   0  0  0  0  0  0  0  0  0  0  0  0
    6.5756   -7.3692   16.4526 C   0  0  0  0  0  0  0  0  0  0  0  0
    0.1207  -11.3388   16.9984 C   0  0  0  0  0  0  0  0  0  0  0  0
   10.9692   -4.6433   21.5995 C   0  0  0  0  0  0  0  0  0  0  0  0
    5.9184   -8.5986   15.4237 C   0  0  0  0  0  0  0  0  0  0  0  0
    4.7310   -8.7067   16.1201 N   0  0  0  0  0  0  0  0  0  0  0  0
   -0.8347  -11.7822   16.1112 C   0  0  0  0  0  0  0  0  0  0  0  0
    5.6561   -7.3488   17.5310 C   0  0  0  0  0  0  0  0  0  0  0  0
   -0.2144  -10.2675   14.4363 C   0  0  0  0  0  0  0  0  0  0  0  0
    4.8326   -8.3807   17.7374 C   0  0  0  0  0  0  0  0  0  0  0  0
    2.5124   -8.7789   17.1501 N   0  0  0  0  0  0  0  0  0  0  0  0
    3.4980   -8.6406   16.2810 C   0  0  0  0  0  0  0  0  0  0  0  0
   -0.9984  -11.2534   14.8917 C   0  0  0  0  0  0  0  0  0  0  0  0
    1.4570  -12.2183   20.2767 C   0  0  0  0  0  0  0  0  0  0  0  0
   10.8388   -3.2385   17.6466 C   0  0  0  0  0  0  0  0  0  0  0  0
    7.8759   -6.8662   16.7326 C   0  0  0  0  0  0  0  0  0  0  0  0
    8.7054   -8.8565   17.5014 F   0  0  0  0  0  0  0  0  0  0  0  0
    9.3946   -5.0766   17.0966 C   0  0  0  0  0  0  0  0  0  0  0  0
   11.3448   -2.8871   20.0126 N   0  0  0  0  0  0  0  0  0  0  0  0
    0.9750  -10.2947   16.6210 C   0  0  0  0  0  0  0  0  0  0  0  0
    8.3188   -5.6308   16.3692 C   0  0  0  0  0  0  0  0  0  0  0  0
   10.8714   -3.6714   18.9839 C   0  0  0  0  0  0  0  0  0  0  0  0
    1.2753  -11.5755   19.0552 C   0  0  0  0  0  0  0  0  0  0  0  0
   10.4005   -4.9468   19.2335 C   0  0  0  0  0  0  0  0  0  0  0  0
    8.5917   -7.6262   17.5622 C   0  0  0  0  0  0  0  0  0  0  0  0
   10.5567   -5.4280   20.6358 C   0  0  0  0  0  0  0  0  0  0  0  0
   10.0419   -3.9208   16.7825 C   0  0  0  0  0  0  0  0  0  0  0  0
    9.7396   -5.6370   18.2537 C   0  0  0  0  0  0  0  0  0  0  0  0
    1.8537   -9.9706   17.4956 C   0  0  0  0  0  0  0  0  0  0  0  0
    0.6475   -9.7125   15.2990 C   0  0  0  0  0  0  0  0  0  0  0  0
  1  9  1  0
  1 21  1  0
  2  8  4  0
  2 23  4  0
  3 29  4  0
  3 32  4  0
  4 27  4  0
  4 33  4  0
  5  7  4  0
  5 27  4  0
  6  9  1  0
  6 12  1  0
  6 20  1  0
  7 11  4  0
  7 24  4  0
  8 30  4  0
  9 10  1  0
 10 16  1  0
 11 17  4  0
 12 14  1  0
 13 17  4  0
 13 34  4  0
 15 16  1  0
 15 33  1  0
 18 27  1  0
 19 26  4  0
 19 31  4  0
 20 25  4  0
 20 29  4  0
 21 29  1  0
 22 25  4  0
 22 31  4  0
 22 32  4  0
 23 26  4  0
 24 33  4  0
 24 34  4  0
 26 28  4  0
 28 30  4  0
 28 32  4  0
M  END
$$$$

 Created by Python create_sdf_string function

 34 60  0  0  0  0  0  0  0  0999 V2000
    6.4889   -9.3450   15.8547 C   0  0  0  0  0  0  0  0  0  0  0  0
    9.1598   -7.3622   18.0405 N   0  0  0  0  0  0  0  0  0  0  0  0
    2.7960  -10.8482   20.0341 N   0  0  0  0  0  0  0  0  0  0  0  0
    0.2908  -12.1384   18.1055 N   0  0  0  0  0  0  0  0  0  0  0  0
    0.2764  -11.3707   17.2403 C   0  0  0  0  0  0  0  0  0  0  0  0
   10.9552   -4.4424   21.5189 C   0  0  0  0  0  0  0  0  0  0  0  0
    5.9218   -8.8019   15.2936 C   0  0  0  0  0  0  0  0  0  0  0  0
    5.2593   -8.7972   16.7998 C   0  0  0  0  0  0  0  0  0  0  0  0
   -0.9725  -11.5816   15.8463 C   0  0  0  0  0  0  0  0  0  0  0  0
    5.2567   -7.7852   18.0203 N   0  0  0  0  0  0  0  0  0  0  0  0
   -0.1669  -10.2765   14.3786 C   0  0  0  0  0  0  0  0  0  0  0  0
    2.8877   -8.9709   17.2840 F   0  0  0  0  0  0  0  0  0  0  0  0
    2.7459   -8.0500   16.2900 B   0  0  0  0  0  0  0  0  0  0  0  0
   -1.1431  -11.3380   14.7218 C   0  0  0  0  0  0  0  0  0  0  0  0
   10.6437   -3.3267   17.7118 C   0  0  0  0  0  0  0  0  0  0  0  0
    7.6822   -6.8853   16.9956 C   0  0  0  0  0  0  0  0  0  0  0  0
    9.5159   -5.5744   17.3199 C   0  0  0  0  0  0  0  0  0  0  0  0
   11.1266   -2.6981   20.1437 N   0  0  0  0  0  0  0  0  0  0  0  0
    0.9437  -10.3115   16.3004 N   0  0  0  0  0  0  0  0  0  0  0  0
    8.3085   -5.5723   16.2734 C   0  0  0  0  0  0  0  0  0  0  0  0
    0.8499  -11.7407   19.2766 C   0  0  0  0  0  0  0  0  0  0  0  0
   10.3055   -4.9154   19.2658 C   0  0  0  0  0  0  0  0  0  0  0  0
   10.3356   -5.7844   21.2429 C   0  0  0  0  0  0  0  0  0  0  0  0
    1.3292   -9.8190   17.9272 C   0  0  0  0  0  0  0  0  0  0  0  0
    0.8207  -10.0475   15.2349 C   0  0  0  0  0  0  0  0  0  0  0  0
   11.3177   -3.6590   21.2757 He  0  0  0  0  0  0  0  0  0  0  0  0
    6.1021   -7.1629   16.1338 He  0  0  0  0  0  0  0  0  0  0  0  0
    5.2470   -7.7903   18.0161 He  0  0  0  0  0  0  0  0  0  0  0  0
    1.6344  -12.2572   21.3173 He  0  0  0  0  0  0  0  0  0  0  0  0
    8.0419   -9.1688   17.7848 He  0  0  0  0  0  0  0  0  0  0  0  0
   10.6780   -3.7849   19.0034 He  0  0  0  0  0  0  0  0  0  0  0  0
    8.4439   -7.8098   18.2246 He  0  0  0  0  0  0  0  0  0  0  0  0
    9.7890   -4.0120   16.6713 He  0  0  0  0  0  0  0  0  0  0  0  0
    9.2981   -5.6150   18.6026 He  0  0  0  0  0  0  0  0  0  0  0  0
  1  5  2  0
  1  7  3  0
  1 17  1  0
  1 19  1  0
  1 22  1  0
  2 11  3  0
  2 16  4  0
  2 17  3  0
  2 20  1  0
  2 25  1  0
  3  7  3  0
  3 10  3  0
  3 12  2  0
  3 14  1  0
  3 17  4  0
  3 19  3  0
  3 20  3  0
  3 21  2  0
  4  5  4  0
  4 12  3  0
  4 21  4  0
  5  8  3  0
  5  9  4  0
  5 10  3  0
  5 11  1  0
  5 17  1  0
  5 19  4  0
  5 23  2  0
  6  7  4  0
  6  9  3  0
  6 13  4  0
  7  8  1  0
  7 12  2  0
  7 20  4  0
  7 21  3  0
  7 23  3  0
  7 24  3  0
  8 17  4  0
  9 14  4  0
 11 13  2  0
 11 14  4  0
 11 17  2  0
 11 25  4  0
 12 15  4  0
 12 20  3  0
 12 21  1  0
 12 24  1  0
 13 16  3  0
 13 20  4  0
 14 23  4  0
 14 24  3  0
 15 20  4  0
 16 20  4  0
 17 20  4  0
 17 24  4  0
 19 25  4  0
 21 24  3  0
 22 23  4  0
 23 24  1  0
 24 25  4  0
M  END
$$$$

 Created by Python create_sdf_string function

 34 38  0  0  0  0  0  0  0  0999 V2000
    6.8396   -9.2286   16.2730 C   0  0  0  0  0  0  0  0  0  0  0  0
   11.2890   -3.3708   21.3482 C   0  0  0  0  0  0  0  0  0  0  0  0
    9.2152   -7.0248   18.5200 N   0  0  0  0  0  0  0  0  0  0  0  0
    2.1234  -10.7619   18.8142 N   0  0  0  0  0  0  0  0  0  0  0  0
    0.1552  -11.9566   18.3107 N   0  0  0  0  0  0  0  0  0  0  0  0
    6.4369   -7.0541   16.0992 C   0  0  0  0  0  0  0  0  0  0  0  0
    0.0596  -11.4335   17.0293 C   0  0  0  0  0  0  0  0  0  0  0  0
   11.0222   -4.7021   21.6582 C   0  0  0  0  0  0  0  0  0  0  0  0
    5.8539   -8.3525   15.7040 C   0  0  0  0  0  0  0  0  0  0  0  0
    4.7528   -8.6949   16.4726 C   0  0  0  0  0  0  0  0  0  0  0  0
   -0.9290  -11.8180   16.0436 C   0  0  0  0  0  0  0  0  0  0  0  0
    5.4215   -7.7100   17.9520 C   0  0  0  0  0  0  0  0  0  0  0  0
   -0.1139  -10.3128   14.4391 C   0  0  0  0  0  0  0  0  0  0  0  0
    5.4713   -7.8815   17.8381 C   0  0  0  0  0  0  0  0  0  0  0  0
    2.7500   -9.2472   17.4378 C   0  0  0  0  0  0  0  0  0  0  0  0
    3.4043   -8.6565   16.5385 C   0  0  0  0  0  0  0  0  0  0  0  0
   -0.9965  -11.2849   14.7910 C   0  0  0  0  0  0  0  0  0  0  0  0
    1.2261  -12.1587   20.6214 C   0  0  0  0  0  0  0  0  0  0  0  0
   10.6475   -3.2297   17.7768 C   0  0  0  0  0  0  0  0  0  0  0  0
    7.7754   -6.8110   16.6955 C   0  0  0  0  0  0  0  0  0  0  0  0
    7.7298   -8.9244   17.4044 C   0  0  0  0  0  0  0  0  0  0  0  0
    9.3245   -5.1295   17.1946 C   0  0  0  0  0  0  0  0  0  0  0  0
   11.1967   -2.9009   20.1108 N   0  0  0  0  0  0  0  0  0  0  0  0
    0.9472  -10.4880   16.6691 C   0  0  0  0  0  0  0  0  0  0  0  0
    8.3562   -5.7017   16.3217 C   0  0  0  0  0  0  0  0  0  0  0  0
   10.7790   -3.7197   19.0689 C   0  0  0  0  0  0  0  0  0  0  0  0
    1.1384  -11.6113   19.1668 C   0  0  0  0  0  0  0  0  0  0  0  0
   10.2930   -5.0273   19.3513 C   0  0  0  0  0  0  0  0  0  0  0  0
    8.2726   -7.6264   17.6395 C   0  0  0  0  0  0  0  0  0  0  0  0
   10.5142   -5.4950   20.6541 C   0  0  0  0  0  0  0  0  0  0  0  0
    9.9944   -3.9463   16.8338 C   0  0  0  0  0  0  0  0  0  0  0  0
    9.6710   -5.6885   18.3370 C   0  0  0  0  0  0  0  0  0  0  0  0
    1.9348  -10.1790   17.6415 C   0  0  0  0  0  0  0  0  0  0  0  0
    0.8371   -9.9318   15.3951 C   0  0  0  0  0  0  0  0  0  0  0  0
  1  9  1  0
  1 21  1  0
  2  8  4  0
  2 23  4  0
  3 29  4  0
  3 32  4  0
  4 27  4  0
  4 33  4  0
  5  7  4  0
  5 27  4  0
  6  9  1  0
  6 20  1  0
  7 11  4  0
  7 24  4  0
  8 30  4  0
  9 10  1  0
 10 16  1  0
 11 17  4  0
 12 14  1  0
 13 17  4  0
 13 34  4  0
 15 16  1  0
 15 33  1  0
 18 27  1  0
 19 26  4  0
 19 31  4  0
 20 25  4  0
 20 29  4  0
 21 29  1  0
 22 25  4  0
 22 31  4  0
 22 32  4  0
 23 26  4  0
 24 33  4  0
 24 34  4  0
 26 28  4  0
 28 30  4  0
 28 32  4  0
M  END
$$$$

 Created by Python create_sdf_string function

 34 73  0  0  0  0  0  0  0  0999 V2000
   11.3606   -3.0825   21.4905 C   0  0  0  0  0  0  0  0  0  0  0  0
    8.9335   -6.8192   17.7188 N   0  0  0  0  0  0  0  0  0  0  0  0
    2.9183  -10.3701   18.2907 N   0  0  0  0  0  0  0  0  0  0  0  0
    6.0355   -7.6071   16.8341 P   0  0  0  0  0  0  0  0  0  0  0  0
   11.0502   -4.6809   21.4249 C   0  0  0  0  0  0  0  0  0  0  0  0
    5.9422   -8.8135   15.6589 C   0  0  0  0  0  0  0  0  0  0  0  0
    4.9114   -8.8536   16.5981 C   0  0  0  0  0  0  0  0  0  0  0  0
   -0.9714  -12.0426   16.5121 C   0  0  0  0  0  0  0  0  0  0  0  0
    4.4559   -7.7122   17.4403 C   0  0  0  0  0  0  0  0  0  0  0  0
   -0.2826  -10.2910   14.2579 C   0  0  0  0  0  0  0  0  0  0  0  0
    1.8761   -8.6791   16.9449 C   0  0  0  0  0  0  0  0  0  0  0  0
    3.1243   -8.0568   15.9457 C   0  0  0  0  0  0  0  0  0  0  0  0
   -0.7085  -11.1748   14.7944 C   0  0  0  0  0  0  0  0  0  0  0  0
   11.0688   -3.3621   18.0414 C   0  0  0  0  0  0  0  0  0  0  0  0
    7.4455   -6.7563   16.4526 C   0  0  0  0  0  0  0  0  0  0  0  0
    9.5547   -4.8427   17.2083 C   0  0  0  0  0  0  0  0  0  0  0  0
   11.0612   -2.5497   19.7791 N   0  0  0  0  0  0  0  0  0  0  0  0
    1.1114  -10.4229   16.8061 C   0  0  0  0  0  0  0  0  0  0  0  0
    8.3086   -5.7525   16.2614 C   0  0  0  0  0  0  0  0  0  0  0  0
   10.8318   -3.3070   19.2019 C   0  0  0  0  0  0  0  0  0  0  0  0
    0.9900  -11.7439   19.2477 C   0  0  0  0  0  0  0  0  0  0  0  0
   10.3406   -4.9918   19.5421 Cl  0  0  0  0  0  0  0  0  0  0  0  0
    7.9892   -7.5036   18.0496 N   0  0  0  0  0  0  0  0  0  0  0  0
   10.0404   -3.9841   16.8781 C   0  0  0  0  0  0  0  0  0  0  0  0
    2.2461   -9.2810   18.2636 C   0  0  0  0  0  0  0  0  0  0  0  0
    0.7095  -10.0804   15.4183 C   0  0  0  0  0  0  0  0  0  0  0  0
    6.9973   -9.4784   16.7678 He  0  0  0  0  0  0  0  0  0  0  0  0
    0.2017  -12.0092   18.4595 He  0  0  0  0  0  0  0  0  0  0  0  0
   -0.1905  -11.6339   17.0095 He  0  0  0  0  0  0  0  0  0  0  0  0
    5.5354   -7.5827   17.7139 He  0  0  0  0  0  0  0  0  0  0  0  0
    1.2292  -12.4150   21.0015 He  0  0  0  0  0  0  0  0  0  0  0  0
    8.0102   -8.8787   17.4571 He  0  0  0  0  0  0  0  0  0  0  0  0
   10.3446   -5.1001   20.5087 He  0  0  0  0  0  0  0  0  0  0  0  0
    8.7878   -5.8572   18.8364 He  0  0  0  0  0  0  0  0  0  0  0  0
  1  4  1  0
  1  5  4  0
  1 17  4  0
  2  6  4  0
  2  7  1  0
  2 14  4  0
  2 26  1  0
  3 15  2  0
  3 16  2  0
  3 17  4  0
  3 18  3  0
  3 20  1  0
  3 21  4  0
  3 25  2  0
  4  6  1  0
  4 11  3  0
  4 15  1  0
  4 17  4  0
  4 19  2  0
  5  7  3  0
  5 18  1  0
  6 10  3  0
  6 11  4  0
  6 19  3  0
  7  9  1  0
  7 12  1  0
  7 15  4  0
  7 17  4  0
  7 20  2  0
  8 25  1  0
  9 11  1  0
  9 15  4  0
  9 19  2  0
  9 25  1  0
  9 26  4  0
 10 12  4  0
 10 13  4  0
 10 19  2  0
 10 24  1  0
 10 26  4  0
 11 13  1  0
 11 15  1  0
 11 16  2  0
 11 18  2  0
 11 19  2  0
 11 23  3  0
 11 24  3  0
 11 25  1  0
 12 14  3  0
 12 19  1  0
 12 22  4  0
 12 24  1  0
 12 26  3  0
 13 15  1  0
 14 20  4  0
 14 24  4  0
 14 25  3  0
 14 26  3  0
 15 16  2  0
 15 17  2  0
 15 19  4  0
 15 20  4  0
 15 22  1  0
 15 23  4  0
 16 25  1  0
 16 26  4  0
 17 20  4  0
 18 23  4  0
 18 25  4  0
 19 23  1  0
 20 24  4  0
 22 26  4  0
 23 25  1  0
M  END
$$$$

 Created by Python create_sdf_string function

 34 41  0  0  0  0  0  0  0  0999 V2000
    6.9178   -9.5040   16.5119 C   0  0  0  0  0  0  0  0  0  0  0  0
   11.3433   -3.2694   21.3784 C   0  0  0  0  0  0  0  0  0  0  0  0
    9.1045   -6.8769   18.4648 N   0  0  0  0  0  0  0  0  0  0  0  0
    2.1130  -10.5989   18.7118 N   0  0  0  0  0  0  0  0  0  0  0  0
    0.2608  -11.9540   18.3958 N   0  0  0  0  0  0  0  0  0  0  0  0
    6.2830   -7.2287   16.3999 C   0  0  0  0  0  0  0  0  0  0  0  0
    0.0860  -11.4833   17.0845 C   0  0  0  0  0  0  0  0  0  0  0  0
   10.9294   -4.5643   21.6157 C   0  0  0  0  0  0  0  0  0  0  0  0
    5.9635   -8.5541   15.9396 C   0  0  0  0  0  0  0  0  0  0  0  0
    4.5077   -8.7100   16.2541 N   0  0  0  0  0  0  0  0  0  0  0  0
   -0.8827  -11.9490   16.2551 C   0  0  0  0  0  0  0  0  0  0  0  0
    4.3017   -8.0921   17.4880 C   0  0  0  0  0  0  0  0  0  0  0  0
   -0.2624  -10.5511   14.5024 C   0  0  0  0  0  0  0  0  0  0  0  0
    5.4617   -7.4844   17.9903 C   0  0  0  0  0  0  0  0  0  0  0  0
    2.3831   -8.6658   17.1461 C   0  0  0  0  0  0  0  0  0  0  0  0
    3.3303   -8.3770   15.9336 C   0  0  0  0  0  0  0  0  0  0  0  0
   -1.0334  -11.5332   14.9936 C   0  0  0  0  0  0  0  0  0  0  0  0
    1.3441  -12.0846   20.5458 C   0  0  0  0  0  0  0  0  0  0  0  0
   10.7475   -3.2367   17.7755 C   0  0  0  0  0  0  0  0  0  0  0  0
    7.6194   -6.7626   16.6925 C   0  0  0  0  0  0  0  0  0  0  0  0
    8.0587   -8.8614   17.3901 C   0  0  0  0  0  0  0  0  0  0  0  0
    9.2941   -5.0401   17.1473 C   0  0  0  0  0  0  0  0  0  0  0  0
   11.2434   -2.8080   20.1392 N   0  0  0  0  0  0  0  0  0  0  0  0
    0.8785  -10.4704   16.6623 C   0  0  0  0  0  0  0  0  0  0  0  0
    8.2273   -5.5242   16.2860 C   0  0  0  0  0  0  0  0  0  0  0  0
   10.7954   -3.6058   19.0933 C   0  0  0  0  0  0  0  0  0  0  0  0
    1.2272  -11.5632   19.1570 C   0  0  0  0  0  0  0  0  0  0  0  0
   10.2825   -4.9122   19.3295 C   0  0  0  0  0  0  0  0  0  0  0  0
    8.2863   -7.4533   17.5460 C   0  0  0  0  0  0  0  0  0  0  0  0
   10.4616   -5.3621   20.6550 C   0  0  0  0  0  0  0  0  0  0  0  0
   10.0401   -3.9338   16.7984 C   0  0  0  0  0  0  0  0  0  0  0  0
    9.5984   -5.5931   18.3375 C   0  0  0  0  0  0  0  0  0  0  0  0
    1.8515   -9.9939   17.5154 C   0  0  0  0  0  0  0  0  0  0  0  0
    0.6664   -9.9823   15.2741 C   0  0  0  0  0  0  0  0  0  0  0  0
  1  9  1  0
  1 21  1  0
  2  8  4  0
  2 23  4  0
  3 29  4  0
  3 32  4  0
  4 27  4  0
  4 33  4  0
  5  7  4  0
  5 27  4  0
  6  9  1  0
  6 14  1  0
  6 20  1  0
  7 11  4  0
  7 24  4  0
  8 30  4  0
  9 10  1  0
 10 12  1  0
 10 16  1  0
 11 17  4  0
 12 14  1  0
 12 15  1  0
 13 17  4  0
 13 34  4  0
 15 16  1  0
 15 33  1  0
 18 27  1  0
 19 26  4  0
 19 31  4  0
 20 25  4  0
 20 29  4  0
 21 29  1  0
 22 25  4  0
 22 31  4  0
 22 32  4  0
 23 26  4  0
 24 33  4  0
 24 34  4  0
 26 28  4  0
 28 30  4  0
 28 32  4  0
M  END
$$$$

 Created by Python create_sdf_string function

 34 84  0  0  0  0  0  0  0  0999 V2000
    6.5828   -9.2652   16.4480 C   0  0  0  0  0  0  0  0  0  0  0  0
   11.5371   -3.4802   21.3282 C   0  0  0  0  0  0  0  0  0  0  0  0
    9.4506   -7.0171   18.1098 N   0  0  0  0  0  0  0  0  0  0  0  0
    1.6240  -10.1331   18.5034 O   0  0  0  0  0  0  0  0  0  0  0  0
    0.0781  -12.1898   18.3192 N   0  0  0  0  0  0  0  0  0  0  0  0
    5.6813   -7.2940   15.8904 C   0  0  0  0  0  0  0  0  0  0  0  0
    0.0412  -11.2682   17.3305 C   0  0  0  0  0  0  0  0  0  0  0  0
   11.0061   -4.5829   21.6058 C   0  0  0  0  0  0  0  0  0  0  0  0
    6.4228   -8.3090   15.5752 C   0  0  0  0  0  0  0  0  0  0  0  0
   -0.8016  -11.8718   16.2904 C   0  0  0  0  0  0  0  0  0  0  0  0
    4.3519   -7.8779   17.2545 C   0  0  0  0  0  0  0  0  0  0  0  0
    0.0153  -10.6371   14.3853 C   0  0  0  0  0  0  0  0  0  0  0  0
    5.7382   -6.5721   17.7660 C   0  0  0  0  0  0  0  0  0  0  0  0
    2.5752   -8.6136   17.0844 C   0  0  0  0  0  0  0  0  0  0  0  0
    3.5621   -8.6049   15.7748 C   0  0  0  0  0  0  0  0  0  0  0  0
   -1.1430  -11.5772   15.1443 C   0  0  0  0  0  0  0  0  0  0  0  0
   10.4400   -3.3548   17.4342 C   0  0  0  0  0  0  0  0  0  0  0  0
    7.5641   -6.9002   16.6212 C   0  0  0  0  0  0  0  0  0  0  0  0
    9.2313   -4.9211   17.1877 C   0  0  0  0  0  0  0  0  0  0  0  0
   11.2625   -3.0135   20.1078 N   0  0  0  0  0  0  0  0  0  0  0  0
    0.6616  -10.3012   16.3794 Br  0  0  0  0  0  0  0  0  0  0  0  0
    8.4400   -5.8196   16.4040 C   0  0  0  0  0  0  0  0  0  0  0  0
   10.8654   -3.6065   19.0953 C   0  0  0  0  0  0  0  0  0  0  0  0
    1.2144  -11.6971   19.2141 C   0  0  0  0  0  0  0  0  0  0  0  0
   10.4373   -5.0175   19.3794 C   0  0  0  0  0  0  0  0  0  0  0  0
    8.0395   -7.6539   17.7726 C   0  0  0  0  0  0  0  0  0  0  0  0
   10.2208   -5.4623   20.7703 C   0  0  0  0  0  0  0  0  0  0  0  0
   10.1334   -4.0031   16.9408 C   0  0  0  0  0  0  0  0  0  0  0  0
    9.3570   -5.3065   18.9468 C   0  0  0  0  0  0  0  0  0  0  0  0
    0.7034   -9.8404   15.3528 C   0  0  0  0  0  0  0  0  0  0  0  0
    4.2365   -8.0882   16.0617 He  0  0  0  0  0  0  0  0  0  0  0  0
    1.6118  -12.7913   21.1112 He  0  0  0  0  0  0  0  0  0  0  0  0
    8.3628   -8.6047   16.8430 He  0  0  0  0  0  0  0  0  0  0  0  0
    1.2026   -9.4675   17.3963 He  0  0  0  0  0  0  0  0  0  0  0  0
  1  3  3  0
  1 12  1  0
  1 15  1  0
  1 20  1  0
  1 21  2  0
  1 24  4  0
  1 28  2  0
  2  8  4  0
  2 11  3  0
  2 12  4  0
  2 21  2  0
  3  9  4  0
  3 23  3  0
  3 26  4  0
  3 27  4  0
  4  7  4  0
  4 10  2  0
  4 11  2  0
  4 20  3  0
  4 22  2  0
  5  7  4  0
  5 11  2  0
  5 24  4  0
  6  9  4  0
  6 13  1  0
  6 15  1  0
  6 17  4  0
  6 18  1  0
  6 19  3  0
  6 26  3  0
  6 28  2  0
  6 29  2  0
  7  8  3  0
  7 10  4  0
  7 14  1  0
  7 21  4  0
  7 26  3  0
  8  9  2  0
  8 27  4  0
  8 29  3  0
  9 11  3  0
  9 18  3  0
  9 22  2  0
  9 29  2  0
 10 15  4  0
 10 16  4  0
 11 13  1  0
 11 18  4  0
 11 23  4  0
 11 24  2  0
 12 16  4  0
 12 21  2  0
 12 22  4  0
 12 26  4  0
 12 30  4  0
 13 16  4  0
 13 17  3  0
 13 21  2  0
 13 23  1  0
 13 27  4  0
 13 30  4  0
 14 15  1  0
 14 17  2  0
 14 22  3  0
 14 28  3  0
 14 30  4  0
 15 19  1  0
 15 23  4  0
 15 29  3  0
 17 23  4  0
 17 30  4  0
 18 22  4  0
 18 26  4  0
 19 28  4  0
 19 29  1  0
 20 23  4  0
 21 30  4  0
 22 24  1  0
 22 29  3  0
 23 25  4  0
 23 27  3  0
 24 25  2  0
 25 27  4  0
 26 30  2  0
M  END
$$$$

 Created by Python create_sdf_string function

 34 40  0  0  0  0  0  0  0  0999 V2000
    6.8400   -9.3037   16.2113 C   0  0  0  0  0  0  0  0  0  0  0  0
   11.4660   -3.3940   21.3712 C   0  0  0  0  0  0  0  0  0  0  0  0
    9.2270   -6.9931   18.4658 N   0  0  0  0  0  0  0  0  0  0  0  0
    1.9675  -10.3908   18.8105 C   0  0  0  0  0  0  0  0  0  0  0  0
    0.2373  -11.8999   18.3394 N   0  0  0  0  0  0  0  0  0  0  0  0
    6.2945   -7.0392   16.2973 C   0  0  0  0  0  0  0  0  0  0  0  0
    0.0493  -11.4495   17.1023 C   0  0  0  0  0  0  0  0  0  0  0  0
   11.0592   -4.6877   21.6916 C   0  0  0  0  0  0  0  0  0  0  0  0
    5.9957   -8.3574   15.6032 C   0  0  0  0  0  0  0  0  0  0  0  0
    4.5449   -8.3740   15.7916 N   0  0  0  0  0  0  0  0  0  0  0  0
   -0.8886  -11.9752   16.3168 C   0  0  0  0  0  0  0  0  0  0  0  0
    4.7062   -7.6740   17.4278 C   0  0  0  0  0  0  0  0  0  0  0  0
   -0.2845  -10.5625   14.4817 C   0  0  0  0  0  0  0  0  0  0  0  0
    5.5222   -7.0853   17.5161 C   0  0  0  0  0  0  0  0  0  0  0  0
    2.4846   -8.6041   17.0282 C   0  0  0  0  0  0  0  0  0  0  0  0
    3.4174   -8.7564   15.9679 C   0  0  0  0  0  0  0  0  0  0  0  0
   -1.0182  -11.5902   15.0063 C   0  0  0  0  0  0  0  0  0  0  0  0
    1.4052  -12.1193   20.5427 C   0  0  0  0  0  0  0  0  0  0  0  0
   10.7123   -3.2141   17.8064 C   0  0  0  0  0  0  0  0  0  0  0  0
    7.6711   -6.7117   16.6626 C   0  0  0  0  0  0  0  0  0  0  0  0
    8.0891   -8.8538   17.1618 C   0  0  0  0  0  0  0  0  0  0  0  0
    9.3248   -5.0484   17.2135 C   0  0  0  0  0  0  0  0  0  0  0  0
   11.3406   -2.9051   20.1182 N   0  0  0  0  0  0  0  0  0  0  0  0
    0.8185  -10.4172   16.6437 C   0  0  0  0  0  0  0  0  0  0  0  0
    8.2516   -5.4997   16.4284 C   0  0  0  0  0  0  0  0  0  0  0  0
   10.8367   -3.6736   19.1193 C   0  0  0  0  0  0  0  0  0  0  0  0
    1.1577  -11.4553   19.1607 C   0  0  0  0  0  0  0  0  0  0  0  0
   10.3120   -4.9714   19.3703 C   0  0  0  0  0  0  0  0  0  0  0  0
    8.3950   -7.5109   17.4679 C   0  0  0  0  0  0  0  0  0  0  0  0
   10.4659   -5.4526   20.6973 C   0  0  0  0  0  0  0  0  0  0  0  0
    9.9757   -3.8991   16.8892 C   0  0  0  0  0  0  0  0  0  0  0  0
    9.6977   -5.6452   18.3653 C   0  0  0  0  0  0  0  0  0  0  0  0
    1.7428   -9.8894   17.4820 C   0  0  0  0  0  0  0  0  0  0  0  0
    0.6241   -9.9588   15.2911 C   0  0  0  0  0  0  0  0  0  0  0  0
  1  9  1  0
  1 21  1  0
  2  8  4  0
  2 23  4  0
  3 29  4  0
  3 32  4  0
  4 27  4  0
  4 33  4  0
  5  7  4  0
  5 27  4  0
  6  9  1  0
  6 14  1  0
  6 20  1  0
  7 11  4  0
  7 24  4  0
  8 30  4  0
  9 10  1  0
 10 12  1  0
 10 16  1  0
 11 17  4  0
 12 14  1  0
 13 17  4  0
 13 34  4  0
 15 16  1  0
 15 33  1  0
 18 27  1  0
 19 26  4  0
 19 31  4  0
 20 25  4  0
 20 29  4  0
 21 29  1  0
 22 25  4  0
 22 31  4  0
 22 32  4  0
 23 26  4  0
 24 33  4  0
 24 34  4  0
 26 28  4  0
 28 30  4  0
 28 32  4  0
M  END
$$$$

 Created by Python create_sdf_string function

 34 82  0  0  0  0  0  0  0  0999 V2000
    7.4221   -9.0242   16.2573 N   0  0  0  0  0  0  0  0  0  0  0  0
   11.4750   -3.4383   21.4488 C   0  0  0  0  0  0  0  0  0  0  0  0
    9.3055   -7.5451   19.3704 N   0  0  0  0  0  0  0  0  0  0  0  0
    1.7722  -10.9896   18.4210 C   0  0  0  0  0  0  0  0  0  0  0  0
    0.1675  -11.7190   18.4371 N   0  0  0  0  0  0  0  0  0  0  0  0
    6.2329   -7.0986   16.1363 C   0  0  0  0  0  0  0  0  0  0  0  0
   -0.1777  -11.3519   17.3547 C   0  0  0  0  0  0  0  0  0  0  0  0
   10.9185   -4.6619   21.6813 C   0  0  0  0  0  0  0  0  0  0  0  0
    5.4718   -7.9870   16.1819 C   0  0  0  0  0  0  0  0  0  0  0  0
    4.4198   -7.5351   15.4960 N   0  0  0  0  0  0  0  0  0  0  0  0
   -1.0492  -11.8981   16.4833 C   0  0  0  0  0  0  0  0  0  0  0  0
    5.0318   -7.1989   17.0398 C   0  0  0  0  0  0  0  0  0  0  0  0
   -0.2288  -10.5357   14.8077 C   0  0  0  0  0  0  0  0  0  0  0  0
    2.1219   -8.5723   17.0380 C   0  0  0  0  0  0  0  0  0  0  0  0
    3.3204   -8.8193   15.5924 C   0  0  0  0  0  0  0  0  0  0  0  0
   -1.0909  -11.5678   14.6647 C   0  0  0  0  0  0  0  0  0  0  0  0
   10.9362   -3.2724   17.8543 C   0  0  0  0  0  0  0  0  0  0  0  0
    7.7350   -6.7537   16.5300 C   0  0  0  0  0  0  0  0  0  0  0  0
    8.3631   -8.7269   17.2557 C   0  0  0  0  0  0  0  0  0  0  0  0
    9.2202   -5.0497   17.1897 S   0  0  0  0  0  0  0  0  0  0  0  0
   11.8613   -2.9995   19.9424 N   0  0  0  0  0  0  0  0  0  0  0  0
    8.3781   -5.7474   16.3555 C   0  0  0  0  0  0  0  0  0  0  0  0
   10.5502   -4.0141   19.3137 C   0  0  0  0  0  0  0  0  0  0  0  0
    0.9960  -11.5030   18.9998 C   0  0  0  0  0  0  0  0  0  0  0  0
   10.5011   -5.2240   19.2516 C   0  0  0  0  0  0  0  0  0  0  0  0
    8.4266   -7.9767   17.6489 C   0  0  0  0  0  0  0  0  0  0  0  0
    9.7770   -3.7787   17.0236 C   0  0  0  0  0  0  0  0  0  0  0  0
   10.4119   -5.8470   18.1104 C   0  0  0  0  0  0  0  0  0  0  0  0
    2.4327  -10.0602   17.3086 C   0  0  0  0  0  0  0  0  0  0  0  0
    0.0381  -10.0591   15.2460 C   0  0  0  0  0  0  0  0  0  0  0  0
    5.4033   -7.3420   17.0301 He  0  0  0  0  0  0  0  0  0  0  0  0
    1.2571  -11.8261   20.3525 He  0  0  0  0  0  0  0  0  0  0  0  0
    0.9318  -10.4505   16.8139 He  0  0  0  0  0  0  0  0  0  0  0  0
   10.3361   -5.6270   20.8350 He  0  0  0  0  0  0  0  0  0  0  0  0
  1 18  2  0
  1 27  3  0
  1 28  2  0
  2  8  4  0
  2 11  2  0
  2 21  4  0
  2 26  1  0
  3  7  4  0
  3 14  1  0
  3 26  3  0
  3 27  2  0
  3 28  4  0
  3 29  1  0
  3 30  1  0
  4  6  2  0
  4 18  1  0
  4 27  4  0
  5  7  4  0
  5  9  1  0
  5 24  2  0
  6  8  2  0
  6  9  1  0
  6 14  1  0
  6 15  3  0
  6 16  2  0
  6 17  3  0
  6 21  4  0
  6 24  2  0
  7 11  4  0
  7 17  1  0
  7 19  2  0
  8 29  2  0
  8 30  3  0
  9 10  1  0
  9 15  4  0
  9 18  4  0
  9 19  2  0
 10 15  1  0
 10 16  3  0
 10 28  1  0
 10 29  1  0
 11 12  1  0
 11 16  4  0
 11 18  4  0
 11 19  2  0
 12 23  3  0
 12 24  1  0
 13 16  4  0
 13 17  2  0
 13 30  4  0
 14 15  1  0
 14 17  1  0
 14 20  4  0
 14 23  1  0
 14 27  1  0
 14 29  1  0
 15 17  4  0
 15 20  4  0
 15 22  4  0
 15 23  1  0
 15 30  4  0
 16 19  2  0
 16 29  1  0
 17 23  4  0
 17 27  4  0
 17 28  3  0
 18 19  1  0
 18 22  4  0
 18 26  4  0
 18 29  2  0
 19 22  4  0
 19 26  1  0
 19 27  3  0
 20 22  4  0
 20 27  4  0
 20 28  4  0
 21 23  4  0
 21 29  1  0
 22 30  3  0
 23 25  4  0
 23 26  2  0
 23 28  2  0
M  END
$$$$

 Created by Python create_sdf_string function

 34 41  0  0  0  0  0  0  0  0999 V2000
    7.1490   -9.0519   16.0371 N   0  0  0  0  0  0  0  0  0  0  0  0
   11.5102   -3.4627   21.4689 C   0  0  0  0  0  0  0  0  0  0  0  0
    9.4282   -7.1688   18.5443 N   0  0  0  0  0  0  0  0  0  0  0  0
    2.0502  -10.6173   18.6479 C   0  0  0  0  0  0  0  0  0  0  0  0
    0.1233  -11.8652   18.4261 N   0  0  0  0  0  0  0  0  0  0  0  0
    6.5336   -7.2600   16.0460 C   0  0  0  0  0  0  0  0  0  0  0  0
   -0.0667  -11.4448   17.1306 C   0  0  0  0  0  0  0  0  0  0  0  0
   11.0750   -4.7738   21.7374 C   0  0  0  0  0  0  0  0  0  0  0  0
    5.7939   -8.1605   15.7359 C   0  0  0  0  0  0  0  0  0  0  0  0
    4.3070   -7.9539   15.5761 N   0  0  0  0  0  0  0  0  0  0  0  0
   -1.0669  -11.9751   16.3259 C   0  0  0  0  0  0  0  0  0  0  0  0
    4.3655   -7.4993   17.3482 C   0  0  0  0  0  0  0  0  0  0  0  0
   -0.4619  -10.6111   14.5382 C   0  0  0  0  0  0  0  0  0  0  0  0
    5.2891   -7.4084   17.4935 C   0  0  0  0  0  0  0  0  0  0  0  0
    2.6383   -8.8248   16.9383 C   0  0  0  0  0  0  0  0  0  0  0  0
    3.2836   -8.6160   15.7455 C   0  0  0  0  0  0  0  0  0  0  0  0
   -1.2426  -11.5783   15.0508 C   0  0  0  0  0  0  0  0  0  0  0  0
    1.2956  -11.9036   20.4281 C   0  0  0  0  0  0  0  0  0  0  0  0
   10.7891   -3.2748   17.9397 C   0  0  0  0  0  0  0  0  0  0  0  0
    7.9414   -6.8124   16.6579 C   0  0  0  0  0  0  0  0  0  0  0  0
    8.1896   -8.8896   17.3605 C   0  0  0  0  0  0  0  0  0  0  0  0
    9.4717   -5.1266   17.3040 C   0  0  0  0  0  0  0  0  0  0  0  0
   11.4219   -3.0075   20.2385 N   0  0  0  0  0  0  0  0  0  0  0  0
    0.7561  -10.4914   16.6157 C   0  0  0  0  0  0  0  0  0  0  0  0
    8.4684   -5.6319   16.4391 C   0  0  0  0  0  0  0  0  0  0  0  0
   10.9009   -3.7815   19.2254 C   0  0  0  0  0  0  0  0  0  0  0  0
    1.1397  -11.4554   19.1445 C   0  0  0  0  0  0  0  0  0  0  0  0
   10.4475   -5.0787   19.4491 C   0  0  0  0  0  0  0  0  0  0  0  0
    8.5668   -7.6257   17.5616 C   0  0  0  0  0  0  0  0  0  0  0  0
   10.6236   -5.5670   20.8054 C   0  0  0  0  0  0  0  0  0  0  0  0
   10.0802   -3.9059   17.0684 C   0  0  0  0  0  0  0  0  0  0  0  0
    9.8019   -5.7657   18.4410 C   0  0  0  0  0  0  0  0  0  0  0  0
    1.8013  -10.0142   17.4296 C   0  0  0  0  0  0  0  0  0  0  0  0
    0.4878  -10.0447   15.2707 C   0  0  0  0  0  0  0  0  0  0  0  0
  1  9  1  0
  1 21  1  0
  2  8  4  0
  2 23  4  0
  3 29  4  0
  3 32  4  0
  4 27  4  0
  4 33  4  0
  5  7  4  0
  5 27  4  0
  6  9  1  0
  6 14  1  0
  6 20  1  0
  7 11  4  0
  7 24  4  0
  8 30  4  0
  9 10  1  0
 10 12  1  0
 10 16  1  0
 11 17  4  0
 12 14  1  0
 12 15  1  0
 13 17  4  0
 13 34  4  0
 15 16  1  0
 15 33  1  0
 18 27  1  0
 19 26  4  0
 19 31  4  0
 20 25  4  0
 20 29  4  0
 21 29  1  0
 22 25  4  0
 22 31  4  0
 22 32  4  0
 23 26  4  0
 24 33  4  0
 24 34  4  0
 26 28  4  0
 28 30  4  0
 28 32  4  0
M  END
$$$$

 Created by Python create_sdf_string function

 34114  0  0  0  0  0  0  0  0999 V2000
    7.3535   -8.9145   15.8636 Cl  0  0  0  0  0  0  0  0  0  0  0  0
   11.5112   -3.6928   21.5539 C   0  0  0  0  0  0  0  0  0  0  0  0
    9.4455   -7.2430   17.3125 N   0  0  0  0  0  0  0  0  0  0  0  0
    1.4948  -10.4763   18.4554 C   0  0  0  0  0  0  0  0  0  0  0  0
   -0.0841  -11.8592   18.6703 N   0  0  0  0  0  0  0  0  0  0  0  0
    6.3704   -7.4502   16.5245 C   0  0  0  0  0  0  0  0  0  0  0  0
   -0.2671  -11.4877   17.2336 C   0  0  0  0  0  0  0  0  0  0  0  0
   11.0570   -4.7304   21.4865 C   0  0  0  0  0  0  0  0  0  0  0  0
    5.9055   -8.5189   15.4582 C   0  0  0  0  0  0  0  0  0  0  0  0
    4.2654   -8.4506   16.0011 N   0  0  0  0  0  0  0  0  0  0  0  0
   -1.2997  -11.9647   16.5675 C   0  0  0  0  0  0  0  0  0  0  0  0
    4.0841   -7.5948   17.9649 C   0  0  0  0  0  0  0  0  0  0  0  0
   -0.5186  -10.4487   14.4825 C   0  0  0  0  0  0  0  0  0  0  0  0
    4.6769   -7.0362   17.2056 C   0  0  0  0  0  0  0  0  0  0  0  0
    2.3305   -8.6710   16.5553 O   0  0  0  0  0  0  0  0  0  0  0  0
    3.8032   -8.3193   15.6733 C   0  0  0  0  0  0  0  0  0  0  0  0
   -1.3324  -11.4423   15.0116 C   0  0  0  0  0  0  0  0  0  0  0  0
    0.8558  -11.5550   19.8428 C   0  0  0  0  0  0  0  0  0  0  0  0
   11.1370   -3.3410   17.6136 C   0  0  0  0  0  0  0  0  0  0  0  0
    8.0047   -6.7713   16.7225 C   0  0  0  0  0  0  0  0  0  0  0  0
    9.6223   -5.3170   17.2026 C   0  0  0  0  0  0  0  0  0  0  0  0
   11.1573   -3.0205   20.3450 N   0  0  0  0  0  0  0  0  0  0  0  0
    0.4739  -10.5895   16.5160 C   0  0  0  0  0  0  0  0  0  0  0  0
    8.6954   -5.4812   16.3584 C   0  0  0  0  0  0  0  0  0  0  0  0
   10.7759   -3.6350   19.2720 C   0  0  0  0  0  0  0  0  0  0  0  0
    1.3362  -11.4124   19.0308 C   0  0  0  0  0  0  0  0  0  0  0  0
   10.5575   -5.3087   19.5558 C   0  0  0  0  0  0  0  0  0  0  0  0
    8.6941   -7.9621   17.3775 C   0  0  0  0  0  0  0  0  0  0  0  0
   10.8285   -5.4684   20.7337 S   0  0  0  0  0  0  0  0  0  0  0  0
   10.0631   -3.8957   17.2861 C   0  0  0  0  0  0  0  0  0  0  0  0
    9.9156   -6.0326   18.3977 C   0  0  0  0  0  0  0  0  0  0  0  0
    2.2975   -9.8348   17.6636 C   0  0  0  0  0  0  0  0  0  0  0  0
    0.8012  -10.2165   15.6613 C   0  0  0  0  0  0  0  0  0  0  0  0
    8.8649   -8.5312   17.0629 He  0  0  0  0  0  0  0  0  0  0  0  0
  1  2  2  0
  1  4  1  0
  1  9  4  0
  1 10  3  0
  1 11  3  0
  1 12  4  0
  1 14  1  0
  1 20  1  0
  2  8  4  0
  2  9  1  0
  2 15  4  0
  2 22  4  0
  2 33  1  0
  3 16  4  0
  3 17  3  0
  3 27  3  0
  3 28  4  0
  3 30  3  0
  3 31  4  0
  3 32  3  0
  4  5  2  0
  4 21  2  0
  4 26  1  0
  4 27  4  0
  4 29  3  0
  4 32  3  0
  5 10  3  0
  5 12  4  0
  5 15  1  0
  5 21  3  0
  5 26  4  0
  6 11  2  0
  6 14  1  0
  6 16  4  0
  6 17  1  0
  6 20  3  0
  6 25  2  0
  6 27  4  0
  6 30  2  0
  6 31  4  0
  7  8  4  0
  7 14  2  0
  7 19  1  0
  7 22  2  0
  7 24  4  0
  7 25  3  0
  7 30  4  0
  7 31  2  0
  8 16  1  0
  8 29  4  0
  9 10  1  0
  9 14  2  0
  9 18  4  0
  9 19  4  0
  9 23  2  0
 10 12  1  0
 10 18  1  0
 10 19  3  0
 10 20  3  0
 10 21  4  0
 10 28  4  0
 10 30  3  0
 10 32  3  0
 11 15  1  0
 11 17  4  0
 11 20  2  0
 11 22  4  0
 11 24  4  0
 11 25  1  0
 12 17  2  0
 12 25  2  0
 12 32  4  0
 13 14  4  0
 13 17  4  0
 13 32  3  0
 13 33  4  0
 14 20  1  0
 14 23  2  0
 14 24  4  0
 14 31  4  0
 15 16  3  0
 15 20  3  0
 15 30  4  0
 16 22  3  0
 16 31  1  0
 16 33  1  0
 17 27  2  0
 18 22  1  0
 18 23  2  0
 18 26  3  0
 19 24  3  0
 19 25  4  0
 19 30  4  0
 20 24  4  0
 20 28  4  0
 21 24  4  0
 21 30  4  0
 21 31  4  0
 22 24  1  0
 22 25  4  0
 22 28  2  0
 23 32  4  0
 23 33  4  0
 24 26  3  0
 24 30  1  0
 24 32  1  0
 25 27  4  0
 25 30  2  0
 27 28  2  0
 27 31  4  0
 28 33  3  0
 29 30  2  0
 29 33  1  0
 31 33  4  0
M  END
$$$$

 Created by Python create_sdf_string function

 34 39  0  0  0  0  0  0  0  0999 V2000
    7.2587   -8.9745   15.8079 C   0  0  0  0  0  0  0  0  0  0  0  0
   11.3719   -3.5102   21.5512 C   0  0  0  0  0  0  0  0  0  0  0  0
    9.5960   -7.1685   18.2056 N   0  0  0  0  0  0  0  0  0  0  0  0
    2.0431  -10.4185   18.4874 C   0  0  0  0  0  0  0  0  0  0  0  0
    0.0175  -11.7710   18.4478 N   0  0  0  0  0  0  0  0  0  0  0  0
    6.6493   -7.1419   16.5471 C   0  0  0  0  0  0  0  0  0  0  0  0
   -0.1563  -11.4023   17.1715 C   0  0  0  0  0  0  0  0  0  0  0  0
   11.0965   -4.8637   21.7058 C   0  0  0  0  0  0  0  0  0  0  0  0
    5.8705   -8.7941   15.5968 C   0  0  0  0  0  0  0  0  0  0  0  0
    4.5774   -8.6223   16.0812 N   0  0  0  0  0  0  0  0  0  0  0  0
   -1.1826  -11.8930   16.3886 C   0  0  0  0  0  0  0  0  0  0  0  0
    4.5984   -7.8496   17.3576 C   0  0  0  0  0  0  0  0  0  0  0  0
   -0.5310  -10.6407   14.5119 C   0  0  0  0  0  0  0  0  0  0  0  0
    5.6096   -7.1793   17.3791 C   0  0  0  0  0  0  0  0  0  0  0  0
    2.3362   -8.8385   16.6033 O   0  0  0  0  0  0  0  0  0  0  0  0
    3.5355   -8.7150   15.6146 C   0  0  0  0  0  0  0  0  0  0  0  0
   -1.3699  -11.5131   15.0684 C   0  0  0  0  0  0  0  0  0  0  0  0
    1.1704  -11.5798   20.4075 C   0  0  0  0  0  0  0  0  0  0  0  0
   10.8078   -3.1905   17.9885 C   0  0  0  0  0  0  0  0  0  0  0  0
    7.8888   -6.7674   16.7199 C   0  0  0  0  0  0  0  0  0  0  0  0
    8.6308   -8.8890   16.9008 C   0  0  0  0  0  0  0  0  0  0  0  0
    9.4769   -5.0568   17.2454 C   0  0  0  0  0  0  0  0  0  0  0  0
   11.3154   -3.0129   20.3446 N   0  0  0  0  0  0  0  0  0  0  0  0
    0.6774  -10.4849   16.5966 C   0  0  0  0  0  0  0  0  0  0  0  0
    8.3415   -5.4445   16.5232 C   0  0  0  0  0  0  0  0  0  0  0  0
   10.9347   -3.7620   19.2600 C   0  0  0  0  0  0  0  0  0  0  0  0
    1.0430  -11.2678   19.1292 C   0  0  0  0  0  0  0  0  0  0  0  0
   10.5534   -5.0937   19.3847 C   0  0  0  0  0  0  0  0  0  0  0  0
    8.7342   -7.6223   17.2745 C   0  0  0  0  0  0  0  0  0  0  0  0
   10.7110   -5.6722   20.6510 C   0  0  0  0  0  0  0  0  0  0  0  0
   10.1367   -3.9002   16.9818 C   0  0  0  0  0  0  0  0  0  0  0  0
    9.9316   -5.7645   18.2763 C   0  0  0  0  0  0  0  0  0  0  0  0
    1.6742   -9.9658   17.2834 C   0  0  0  0  0  0  0  0  0  0  0  0
    0.4444  -10.0988   15.1876 C   0  0  0  0  0  0  0  0  0  0  0  0
  1  9  1  0
  1 21  1  0
  2  8  4  0
  2 23  4  0
  3 29  4  0
  3 32  4  0
  4 27  4  0
  4 33  4  0
  5  7  4  0
  5 27  4  0
  6 14  1  0
  6 20  1  0
  7 11  4  0
  7 24  4  0
  8 30  4  0
  9 10  1  0
 10 12  1  0
 10 16  1  0
 11 17  4  0
 12 14  1  0
 13 17  4  0
 13 34  4  0
 15 16  1  0
 15 33  1  0
 18 27  1  0
 19 26  4  0
 19 31  4  0
 20 25  4  0
 20 29  4  0
 21 29  1  0
 22 25  4  0
 22 31  4  0
 22 32  4  0
 23 26  4  0
 24 33  4  0
 24 34  4  0
 26 28  4  0
 28 30  4  0
 28 32  4  0
M  END
$$$$

 Created by Python create_sdf_string function

 34 76  0  0  0  0  0  0  0  0999 V2000
   11.5949   -3.4068   21.7498 C   0  0  0  0  0  0  0  0  0  0  0  0
    0.1622  -12.2009   18.6217 N   0  0  0  0  0  0  0  0  0  0  0  0
    6.0169   -7.5572   16.7811 C   0  0  0  0  0  0  0  0  0  0  0  0
   -0.3117  -11.3127   17.2253 C   0  0  0  0  0  0  0  0  0  0  0  0
   10.9635   -4.6917   21.7501 C   0  0  0  0  0  0  0  0  0  0  0  0
    6.0439   -8.8829   15.7985 C   0  0  0  0  0  0  0  0  0  0  0  0
    4.4083   -8.3198   15.6943 N   0  0  0  0  0  0  0  0  0  0  0  0
   -1.1117  -11.9820   16.2603 C   0  0  0  0  0  0  0  0  0  0  0  0
    4.1382   -7.3666   17.0382 C   0  0  0  0  0  0  0  0  0  0  0  0
   -0.6227  -10.8148   14.5458 N   0  0  0  0  0  0  0  0  0  0  0  0
    5.6559   -6.9698   17.3292 P   0  0  0  0  0  0  0  0  0  0  0  0
    1.9923   -8.6782   16.3189 O   0  0  0  0  0  0  0  0  0  0  0  0
    3.4323   -8.7281   15.5458 C   0  0  0  0  0  0  0  0  0  0  0  0
   -1.2522  -11.5684   15.1783 C   0  0  0  0  0  0  0  0  0  0  0  0
    1.8139  -11.0982   20.3267 O   0  0  0  0  0  0  0  0  0  0  0  0
   10.8297   -3.2688   17.7495 C   0  0  0  0  0  0  0  0  0  0  0  0
    7.6402   -6.8261   16.7179 C   0  0  0  0  0  0  0  0  0  0  0  0
    7.7742   -8.4027   16.5959 C   0  0  0  0  0  0  0  0  0  0  0  0
    9.4121   -5.2322   17.0621 C   0  0  0  0  0  0  0  0  0  0  0  0
   11.4534   -2.8161   20.6196 N   0  0  0  0  0  0  0  0  0  0  0  0
    0.8098  -10.6317   16.7371 C   0  0  0  0  0  0  0  0  0  0  0  0
    8.0387   -5.4958   16.6119 C   0  0  0  0  0  0  0  0  0  0  0  0
   10.8557   -3.5663   19.2086 C   0  0  0  0  0  0  0  0  0  0  0  0
    1.1575  -11.1684   19.4384 C   0  0  0  0  0  0  0  0  0  0  0  0
   10.5702   -5.1723   19.1466 C   0  0  0  0  0  0  0  0  0  0  0  0
    7.7478   -7.7871   17.8033 C   0  0  0  0  0  0  0  0  0  0  0  0
   10.1574   -4.9557   20.7214 C   0  0  0  0  0  0  0  0  0  0  0  0
    9.9687   -4.1695   16.7629 C   0  0  0  0  0  0  0  0  0  0  0  0
   10.3567   -6.0266   18.6790 C   0  0  0  0  0  0  0  0  0  0  0  0
    1.7779  -10.0598   17.5594 C   0  0  0  0  0  0  0  0  0  0  0  0
    0.3586  -10.2897   15.2912 C   0  0  0  0  0  0  0  0  0  0  0  0
    7.8566   -8.9400   15.9432 He  0  0  0  0  0  0  0  0  0  0  0  0
    9.7768   -7.0463   18.3793 He  0  0  0  0  0  0  0  0  0  0  0  0
    1.5860   -9.9705   17.9288 He  0  0  0  0  0  0  0  0  0  0  0  0
  1  5  4  0
  1  7  1  0
  1 19  3  0
  2 12  1  0
  2 24  4  0
  3  8  2  0
  3 11  1  0
  3 13  4  0
  3 14  3  0
  4  8  4  0
  4  9  2  0
  4 18  3  0
  4 21  4  0
  5  6  1  0
  5  9  2  0
  5 12  3  0
  5 22  4  0
  5 23  2  0
  5 24  4  0
  5 27  1  0
  6  7  1  0
  6 18  1  0
  6 26  4  0
  6 29  1  0
  7  8  4  0
  7  9  1  0
  7 10  4  0
  7 12  2  0
  7 13  1  0
  7 15  4  0
  7 18  4  0
  7 26  4  0
  8 14  4  0
  9 11  1  0
  9 18  2  0
  9 19  3  0
  9 24  2  0
  9 27  4  0
  9 31  2  0
 10 14  4  0
 10 20  1  0
 10 22  2  0
 10 27  1  0
 10 31  4  0
 11 17  3  0
 11 19  2  0
 11 21  4  0
 12 13  1  0
 12 16  3  0
 12 17  2  0
 12 30  4  0
 13 18  1  0
 13 26  2  0
 13 30  1  0
 13 31  2  0
 15 20  2  0
 15 25  1  0
 16 23  4  0
 16 27  1  0
 17 22  4  0
 17 26  4  0
 17 29  4  0
 18 26  1  0
 19 22  4  0
 19 25  2  0
 19 28  4  0
 20 23  4  0
 21 30  4  0
 21 31  4  0
 22 29  4  0
 23 25  4  0
 23 29  4  0
 24 26  3  0
 25 26  4  0
 25 29  4  0
 27 30  3  0
M  END
$$$$

 Created by Python create_sdf_string function

 34 38  0  0  0  0  0  0  0  0999 V2000
    7.5948   -8.8273   15.7005 C   0  0  0  0  0  0  0  0  0  0  0  0
   11.4279   -3.3509   21.5496 C   0  0  0  0  0  0  0  0  0  0  0  0
    9.5251   -7.1243   18.4692 C   0  0  0  0  0  0  0  0  0  0  0  0
    2.0026  -10.2525   18.3883 C   0  0  0  0  0  0  0  0  0  0  0  0
    0.2037  -11.7263   18.4744 N   0  0  0  0  0  0  0  0  0  0  0  0
    6.3942   -6.9871   16.6252 C   0  0  0  0  0  0  0  0  0  0  0  0
   -0.0868  -11.4583   17.1643 C   0  0  0  0  0  0  0  0  0  0  0  0
   10.9452   -4.6594   21.7855 C   0  0  0  0  0  0  0  0  0  0  0  0
    5.9392   -8.9940   15.7633 C   0  0  0  0  0  0  0  0  0  0  0  0
    4.5099   -8.4770   15.8929 N   0  0  0  0  0  0  0  0  0  0  0  0
   -1.1302  -12.0564   16.4819 C   0  0  0  0  0  0  0  0  0  0  0  0
    4.3279   -7.4412   17.1061 C   0  0  0  0  0  0  0  0  0  0  0  0
   -0.6026  -10.8071   14.5229 N   0  0  0  0  0  0  0  0  0  0  0  0
    5.4545   -7.1844   17.5516 C   0  0  0  0  0  0  0  0  0  0  0  0
    2.2368   -8.7881   16.5678 O   0  0  0  0  0  0  0  0  0  0  0  0
    3.4198   -8.9671   15.6074 C   0  0  0  0  0  0  0  0  0  0  0  0
   -1.3830  -11.7295   15.1682 C   0  0  0  0  0  0  0  0  0  0  0  0
    1.5272  -11.3583   20.2875 O   0  0  0  0  0  0  0  0  0  0  0  0
   10.8673   -3.2315   17.9064 C   0  0  0  0  0  0  0  0  0  0  0  0
    7.7889   -6.7272   16.8840 C   0  0  0  0  0  0  0  0  0  0  0  0
    7.1810   -9.1404   16.4149 C   0  0  0  0  0  0  0  0  0  0  0  0
    9.4223   -5.0757   17.3068 C   0  0  0  0  0  0  0  0  0  0  0  0
   11.4269   -2.8822   20.2930 N   0  0  0  0  0  0  0  0  0  0  0  0
    0.6525  -10.5213   16.5090 C   0  0  0  0  0  0  0  0  0  0  0  0
    8.3053   -5.5367   16.5731 C   0  0  0  0  0  0  0  0  0  0  0  0
   10.8948   -3.6642   19.2570 C   0  0  0  0  0  0  0  0  0  0  0  0
    1.2349  -11.1443   19.0857 C   0  0  0  0  0  0  0  0  0  0  0  0
   10.4173   -4.9787   19.4399 C   0  0  0  0  0  0  0  0  0  0  0  0
    8.6053   -7.5486   17.6326 C   0  0  0  0  0  0  0  0  0  0  0  0
   10.6404   -5.4603   20.7577 C   0  0  0  0  0  0  0  0  0  0  0  0
   10.0946   -3.8904   17.0029 C   0  0  0  0  0  0  0  0  0  0  0  0
    9.7968   -5.6881   18.4212 C   0  0  0  0  0  0  0  0  0  0  0  0
    1.6689   -9.8573   17.1817 C   0  0  0  0  0  0  0  0  0  0  0  0
    0.3869  -10.2074   15.1478 C   0  0  0  0  0  0  0  0  0  0  0  0
  1 21  1  0
  2  8  4  0
  2 23  4  0
  3 29  4  0
  3 32  4  0
  4 27  4  0
  4 33  4  0
  5  7  4  0
  5 27  4  0
  6 14  1  0
  6 20  1  0
  7 11  4  0
  7 24  4  0
  8 30  4  0
  9 10  1  0
  9 21  1  0
 10 12  1  0
 10 16  1  0
 11 17  4  0
 12 14  1  0
 13 17  4  0
 13 34  4  0
 15 16  1  0
 15 33  1  0
 18 27  1  0
 19 26  4  0
 19 31  4  0
 20 25  4  0
 20 29  4  0
 22 25  4  0
 22 31  4  0
 22 32  4  0
 23 26  4  0
 24 33  4  0
 24 34  4  0
 26 28  4  0
 28 30  4  0
 28 32  4  0
M  END
$$$$

 Created by Python create_sdf_string function

 34 86  0  0  0  0  0  0  0  0999 V2000
    7.2210   -9.0797   15.1898 Br  0  0  0  0  0  0  0  0  0  0  0  0
   11.2781   -3.4985   21.5362 C   0  0  0  0  0  0  0  0  0  0  0  0
    9.6501   -6.4817   18.7600 O   0  0  0  0  0  0  0  0  0  0  0  0
    2.1238   -9.9641   18.3121 C   0  0  0  0  0  0  0  0  0  0  0  0
    6.0108   -6.4262   16.1658 C   0  0  0  0  0  0  0  0  0  0  0  0
   -0.0129  -11.3602   17.3284 C   0  0  0  0  0  0  0  0  0  0  0  0
   11.1534   -4.8525   21.8452 C   0  0  0  0  0  0  0  0  0  0  0  0
    5.2387   -8.4157   15.5958 N   0  0  0  0  0  0  0  0  0  0  0  0
   -1.0779  -12.1629   16.7081 N   0  0  0  0  0  0  0  0  0  0  0  0
    4.3899   -7.4268   16.8449 C   0  0  0  0  0  0  0  0  0  0  0  0
   -0.6665  -10.5525   14.8216 N   0  0  0  0  0  0  0  0  0  0  0  0
    1.7696   -8.6899   16.4338 O   0  0  0  0  0  0  0  0  0  0  0  0
    3.7050   -9.2391   16.2041 C   0  0  0  0  0  0  0  0  0  0  0  0
   -1.2046  -11.6312   14.9502 C   0  0  0  0  0  0  0  0  0  0  0  0
    1.4158  -11.0971   19.5809 O   0  0  0  0  0  0  0  0  0  0  0  0
   10.7938   -2.9861   18.0296 C   0  0  0  0  0  0  0  0  0  0  0  0
    7.8812   -6.9381   16.7207 C   0  0  0  0  0  0  0  0  0  0  0  0
    7.0234   -9.2819   16.0325 C   0  0  0  0  0  0  0  0  0  0  0  0
    9.3763   -5.0964   17.4311 C   0  0  0  0  0  0  0  0  0  0  0  0
   11.5940   -3.0142   20.4403 N   0  0  0  0  0  0  0  0  0  0  0  0
    1.1597  -10.3948   16.5138 C   0  0  0  0  0  0  0  0  0  0  0  0
    8.6458   -5.4511   16.5624 C   0  0  0  0  0  0  0  0  0  0  0  0
   10.9526   -3.4486   19.3473 C   0  0  0  0  0  0  0  0  0  0  0  0
    1.0361  -11.4505   19.0232 C   0  0  0  0  0  0  0  0  0  0  0  0
   10.2060   -5.1342   19.6747 C   0  0  0  0  0  0  0  0  0  0  0  0
    8.5415   -8.3606   17.5128 C   0  0  0  0  0  0  0  0  0  0  0  0
   10.6028   -5.9559   20.9239 C   0  0  0  0  0  0  0  0  0  0  0  0
    9.8296   -3.7973   17.0050 C   0  0  0  0  0  0  0  0  0  0  0  0
   10.1469   -5.4352   18.4340 C   0  0  0  0  0  0  0  0  0  0  0  0
    1.0739   -9.5395   16.7209 C   0  0  0  0  0  0  0  0  0  0  0  0
    0.4885  -10.2645   15.1120 C   0  0  0  0  0  0  0  0  0  0  0  0
    0.4073  -11.4298   18.3584 He  0  0  0  0  0  0  0  0  0  0  0  0
    4.0725   -8.5095   15.7334 He  0  0  0  0  0  0  0  0  0  0  0  0
    6.0537   -6.9377   17.5844 He  0  0  0  0  0  0  0  0  0  0  0  0
  1  3  3  0
  1  8  1  0
  1 18  1  0
  1 24  3  0
  2  3  4  0
  2  7  4  0
  2 11  1  0
  2 15  2  0
  2 20  4  0
  2 29  4  0
  3  9  4  0
  3 11  1  0
  3 17  1  0
  3 20  2  0
  3 26  4  0
  3 29  1  0
  4  8  2  0
  4 11  1  0
  4 16  3  0
  4 24  4  0
  4 30  4  0
  5  7  1  0
  5 10  2  0
  5 17  1  0
  6  9  4  0
  6 13  2  0
  6 19  2  0
  6 21  4  0
  6 22  1  0
  6 28  1  0
  7 24  4  0
  7 29  2  0
  8  9  3  0
  8 16  2  0
  8 18  2  0
  8 22  1  0
  8 24  3  0
  9 14  4  0
  9 27  1  0
 10 11  3  0
 10 14  2  0
 10 19  3  0
 10 21  3  0
 10 26  2  0
 10 28  1  0
 10 29  4  0
 11 14  4  0
 11 18  1  0
 11 31  4  0
 12 13  1  0
 12 20  1  0
 12 28  3  0
 13 22  2  0
 13 23  4  0
 15 16  1  0
 15 18  2  0
 15 24  1  0
 15 27  3  0
 15 28  4  0
 15 31  2  0
 16 23  4  0
 16 28  4  0
 17 22  4  0
 17 26  4  0
 18 20  1  0
 18 22  1  0
 18 23  2  0
 19 20  3  0
 19 22  4  0
 19 28  4  0
 19 29  4  0
 20 23  4  0
 20 27  1  0
 20 29  3  0
 21 24  4  0
 21 30  4  0
 21 31  4  0
 23 25  4  0
 23 26  4  0
 24 29  2  0
 25 29  4  0
 26 27  4  0
 26 29  2  0
 27 28  4  0
 28 29  1  0
 29 31  3  0
M  END
$$$$

 Created by Python create_sdf_string function

 34 39  0  0  0  0  0  0  0  0999 V2000
    7.0687   -8.6834   15.2659 C   0  0  0  0  0  0  0  0  0  0  0  0
   11.4932   -3.5353   21.7231 C   0  0  0  0  0  0  0  0  0  0  0  0
    9.5679   -7.0399   18.5891 C   0  0  0  0  0  0  0  0  0  0  0  0
    1.9415  -10.1510   18.3074 C   0  0  0  0  0  0  0  0  0  0  0  0
    0.2542  -11.6706   18.3723 N   0  0  0  0  0  0  0  0  0  0  0  0
    6.5248   -6.7927   16.3066 C   0  0  0  0  0  0  0  0  0  0  0  0
   -0.0733  -11.4377   17.0528 C   0  0  0  0  0  0  0  0  0  0  0  0
   11.1427   -4.8521   21.8900 C   0  0  0  0  0  0  0  0  0  0  0  0
    5.7353   -8.8783   15.3143 N   0  0  0  0  0  0  0  0  0  0  0  0
    4.3675   -8.4034   15.8066 C   0  0  0  0  0  0  0  0  0  0  0  0
   -1.1118  -12.0396   16.4230 N   0  0  0  0  0  0  0  0  0  0  0  0
    4.5864   -7.3847   16.9929 C   0  0  0  0  0  0  0  0  0  0  0  0
   -0.6851  -10.8467   14.4658 N   0  0  0  0  0  0  0  0  0  0  0  0
    5.7534   -7.1060   17.1919 C   0  0  0  0  0  0  0  0  0  0  0  0
    2.1551   -8.7455   16.4001 O   0  0  0  0  0  0  0  0  0  0  0  0
    3.4220   -9.0987   15.8309 C   0  0  0  0  0  0  0  0  0  0  0  0
   -1.3481  -11.7686   15.1450 C   0  0  0  0  0  0  0  0  0  0  0  0
    1.5722  -11.3359   20.2111 O   0  0  0  0  0  0  0  0  0  0  0  0
   10.7440   -3.1265   18.1574 C   0  0  0  0  0  0  0  0  0  0  0  0
    7.8946   -6.6809   16.8222 C   0  0  0  0  0  0  0  0  0  0  0  0
    6.6234   -9.3004   16.1143 C   0  0  0  0  0  0  0  0  0  0  0  0
    9.5029   -4.9823   17.4254 C   0  0  0  0  0  0  0  0  0  0  0  0
   11.3367   -2.9296   20.5182 N   0  0  0  0  0  0  0  0  0  0  0  0
    0.5924  -10.4477   16.4018 C   0  0  0  0  0  0  0  0  0  0  0  0
    8.4828   -5.4923   16.5620 C   0  0  0  0  0  0  0  0  0  0  0  0
   10.8633   -3.6726   19.4159 C   0  0  0  0  0  0  0  0  0  0  0  0
    1.2663  -11.0946   19.0085 C   0  0  0  0  0  0  0  0  0  0  0  0
   10.4890   -4.9935   19.5387 C   0  0  0  0  0  0  0  0  0  0  0  0
    8.7007   -7.4473   17.7919 C   0  0  0  0  0  0  0  0  0  0  0  0
   10.6550   -5.5767   20.8547 C   0  0  0  0  0  0  0  0  0  0  0  0
   10.0260   -3.7441   17.1988 C   0  0  0  0  0  0  0  0  0  0  0  0
    9.8807   -5.6307   18.5153 C   0  0  0  0  0  0  0  0  0  0  0  0
    1.5864   -9.8426   17.0592 C   0  0  0  0  0  0  0  0  0  0  0  0
    0.2282  -10.1427   15.0221 C   0  0  0  0  0  0  0  0  0  0  0  0
  1  9  1  0
  1 21  1  0
  2  8  4  0
  2 23  4  0
  3 29  4  0
  3 32  4  0
  4 27  4  0
  4 33  4  0
  5  7  4  0
  5 27  4  0
  6 14  1  0
  6 20  1  0
  7 11  4  0
  7 24  4  0
  8 30  4  0
  9 10  1  0
  9 21  1  0
 10 12  1  0
 10 16  1  0
 11 17  4  0
 12 14  1  0
 13 17  4  0
 13 34  4  0
 15 16  1  0
 15 33  1  0
 18 27  1  0
 19 26  4  0
 19 31  4  0
 20 25  4  0
 20 29  4  0
 22 25  4  0
 22 31  4  0
 22 32  4  0
 23 26  4  0
 24 33  4  0
 24 34  4  0
 26 28  4  0
 28 30  4  0
 28 32  4  0
M  END
$$$$

 Created by Python create_sdf_string function

 34 95  0  0  0  0  0  0  0  0999 V2000
    6.9179   -8.6482   15.6514 C   0  0  0  0  0  0  0  0  0  0  0  0
   11.4998   -3.2862   21.7082 C   0  0  0  0  0  0  0  0  0  0  0  0
    9.0742   -6.9009   18.2400 C   0  0  0  0  0  0  0  0  0  0  0  0
    1.3308  -10.1012   18.1860 C   0  0  0  0  0  0  0  0  0  0  0  0
    0.2481  -11.8062   18.5018 N   0  0  0  0  0  0  0  0  0  0  0  0
    6.8805   -7.2346   16.3577 C   0  0  0  0  0  0  0  0  0  0  0  0
    0.1900  -11.3088   17.1253 C   0  0  0  0  0  0  0  0  0  0  0  0
   11.1775   -4.4664   21.8534 C   0  0  0  0  0  0  0  0  0  0  0  0
    5.8888   -8.8169   15.5361 N   0  0  0  0  0  0  0  0  0  0  0  0
    4.3433   -8.8528   16.1700 C   0  0  0  0  0  0  0  0  0  0  0  0
   -1.2398  -12.0117   16.4408 N   0  0  0  0  0  0  0  0  0  0  0  0
    4.7173   -7.5692   17.4196 C   0  0  0  0  0  0  0  0  0  0  0  0
   -0.6811  -10.7067   14.4185 N   0  0  0  0  0  0  0  0  0  0  0  0
    5.9740   -7.4540   17.8158 C   0  0  0  0  0  0  0  0  0  0  0  0
    3.2982   -8.7033   16.2102 C   0  0  0  0  0  0  0  0  0  0  0  0
   -1.3650  -11.8790   15.4415 C   0  0  0  0  0  0  0  0  0  0  0  0
    1.3818  -11.4010   20.3401 O   0  0  0  0  0  0  0  0  0  0  0  0
   10.6207   -3.4455   18.2641 C   0  0  0  0  0  0  0  0  0  0  0  0
    7.9792   -6.7752   16.6631 C   0  0  0  0  0  0  0  0  0  0  0  0
    6.2252   -8.6627   15.9500 C   0  0  0  0  0  0  0  0  0  0  0  0
    9.5723   -5.2091   17.3242 C   0  0  0  0  0  0  0  0  0  0  0  0
   11.4120   -2.7322   20.4469 N   0  0  0  0  0  0  0  0  0  0  0  0
    0.4334  -10.4290   16.1732 C   0  0  0  0  0  0  0  0  0  0  0  0
    8.4592   -5.7734   16.6041 C   0  0  0  0  0  0  0  0  0  0  0  0
   10.9409   -3.7698   19.2548 C   0  0  0  0  0  0  0  0  0  0  0  0
    1.0296  -10.8700   18.9733 N   0  0  0  0  0  0  0  0  0  0  0  0
   10.4440   -5.0577   19.8157 C   0  0  0  0  0  0  0  0  0  0  0  0
    8.8663   -7.2483   17.5226 C   0  0  0  0  0  0  0  0  0  0  0  0
   10.6905   -5.6078   20.6313 C   0  0  0  0  0  0  0  0  0  0  0  0
   10.2335   -3.9545   17.2463 Cl  0  0  0  0  0  0  0  0  0  0  0  0
   10.2287   -5.5443   18.8205 F   0  0  0  0  0  0  0  0  0  0  0  0
    0.1786  -10.2773   14.8494 C   0  0  0  0  0  0  0  0  0  0  0  0
    2.4448   -8.6692   16.5720 He  0  0  0  0  0  0  0  0  0  0  0  0
    2.0445  -10.0777   17.1056 He  0  0  0  0  0  0  0  0  0  0  0  0
  1  6  2  0
  1  9  1  0
  1 13  3  0
  1 17  2  0
  1 20  1  0
  1 23  2  0
  1 24  4  0
  1 30  1  0
  2  8  4  0
  2 14  1  0
  2 22  4  0
  3  4  2  0
  3 23  1  0
  3 29  1  0
  3 31  2  0
  3 32  1  0
  4 14  2  0
  4 15  1  0
  4 26  4  0
  4 31  4  0
  5  7  4  0
  5 12  1  0
  5 14  4  0
  5 20  3  0
  5 23  3  0
  5 26  4  0
  6  8  2  0
  6 19  1  0
  6 30  3  0
  6 32  4  0
  7 11  4  0
  7 13  2  0
  7 14  1  0
  7 23  4  0
  7 27  3  0
  7 29  4  0
  8  9  1  0
  8 29  4  0
  9 10  1  0
  9 11  2  0
  9 20  1  0
  9 30  2  0
  9 31  1  0
 10 12  1  0
 10 15  4  0
 10 16  3  0
 10 17  2  0
 10 20  3  0
 10 27  3  0
 10 28  1  0
 11 16  4  0
 11 17  1  0
 11 21  3  0
 12 13  4  0
 12 26  2  0
 12 28  1  0
 12 30  1  0
 13 16  4  0
 13 28  2  0
 13 32  4  0
 14 16  1  0
 14 17  2  0
 14 19  4  0
 14 20  4  0
 14 25  1  0
 15 21  2  0
 15 24  3  0
 15 25  1  0
 15 28  3  0
 16 22  2  0
 17 25  2  0
 17 26  1  0
 17 29  3  0
 18 20  2  0
 18 25  4  0
 18 28  3  0
 18 30  4  0
 19 24  4  0
 19 25  1  0
 19 28  2  0
 20 29  1  0
 21 24  4  0
 21 30  4  0
 21 31  4  0
 22 25  4  0
 22 31  3  0
 23 31  2  0
 23 32  4  0
 25 27  2  0
 25 29  4  0
 25 31  1  0
 26 31  1  0
 27 29  4  0
 27 31  4  0
 28 30  3  0
M  END
$$$$

 Created by Python create_sdf_string function

 34 39  0  0  0  0  0  0  0  0999 V2000
    7.0355   -8.4496   15.5777 C   0  0  0  0  0  0  0  0  0  0  0  0
   11.5018   -3.3352   21.7297 C   0  0  0  0  0  0  0  0  0  0  0  0
    9.6747   -7.0284   18.6504 C   0  0  0  0  0  0  0  0  0  0  0  0
    1.8915  -10.2219   18.3508 C   0  0  0  0  0  0  0  0  0  0  0  0
    0.1624  -11.6844   18.3483 N   0  0  0  0  0  0  0  0  0  0  0  0
    6.8901   -7.2718   16.3942 C   0  0  0  0  0  0  0  0  0  0  0  0
   -0.1584  -11.4341   17.0758 C   0  0  0  0  0  0  0  0  0  0  0  0
   11.1905   -4.6583   21.9718 C   0  0  0  0  0  0  0  0  0  0  0  0
    5.4846   -8.9689   15.4770 N   0  0  0  0  0  0  0  0  0  0  0  0
    4.3665   -8.6086   16.2486 C   0  0  0  0  0  0  0  0  0  0  0  0
   -1.1314  -12.1022   16.3953 N   0  0  0  0  0  0  0  0  0  0  0  0
    4.7567   -7.7112   17.3737 C   0  0  0  0  0  0  0  0  0  0  0  0
   -0.7288  -10.9018   14.4391 N   0  0  0  0  0  0  0  0  0  0  0  0
    5.9127   -7.3753   17.5373 C   0  0  0  0  0  0  0  0  0  0  0  0
    2.1830   -8.7092   16.4659 N   0  0  0  0  0  0  0  0  0  0  0  0
    3.2619   -8.9262   15.8338 C   0  0  0  0  0  0  0  0  0  0  0  0
   -1.4258  -11.7859   15.1346 C   0  0  0  0  0  0  0  0  0  0  0  0
    1.3276  -11.3275   20.3019 O   0  0  0  0  0  0  0  0  0  0  0  0
   10.8393   -3.1196   18.1382 C   0  0  0  0  0  0  0  0  0  0  0  0
    8.1155   -6.7918   16.8291 C   0  0  0  0  0  0  0  0  0  0  0  0
    6.2503   -9.2937   15.7779 C   0  0  0  0  0  0  0  0  0  0  0  0
    9.6163   -4.9819   17.4348 C   0  0  0  0  0  0  0  0  0  0  0  0
   11.3817   -2.8192   20.4818 N   0  0  0  0  0  0  0  0  0  0  0  0
    0.5383  -10.5286   16.3973 C   0  0  0  0  0  0  0  0  0  0  0  0
    8.6027   -5.5606   16.5870 C   0  0  0  0  0  0  0  0  0  0  0  0
   10.9221   -3.6092   19.4366 C   0  0  0  0  0  0  0  0  0  0  0  0
    1.1293  -11.0769   19.0427 C   0  0  0  0  0  0  0  0  0  0  0  0
   10.5287   -4.9201   19.5950 C   0  0  0  0  0  0  0  0  0  0  0  0
    8.8602   -7.5405   17.7868 C   0  0  0  0  0  0  0  0  0  0  0  0
   10.7122   -5.4309   20.9286 C   0  0  0  0  0  0  0  0  0  0  0  0
   10.1417   -3.7534   17.1848 C   0  0  0  0  0  0  0  0  0  0  0  0
    9.9559   -5.5887   18.5709 C   0  0  0  0  0  0  0  0  0  0  0  0
    1.4845   -9.8700   17.1203 C   0  0  0  0  0  0  0  0  0  0  0  0
    0.2371  -10.2457   15.0260 C   0  0  0  0  0  0  0  0  0  0  0  0
  1  6  1  0
  1 21  1  0
  2  8  4  0
  2 23  4  0
  3 29  4  0
  3 32  4  0
  4 27  4  0
  4 33  4  0
  5  7  4  0
  5 27  4  0
  6 14  1  0
  6 20  1  0
  7 11  4  0
  7 24  4  0
  8 30  4  0
  9 10  1  0
  9 21  1  0
 10 12  1  0
 10 16  1  0
 11 17  4  0
 12 14  1  0
 13 17  4  0
 13 34  4  0
 15 16  1  0
 15 33  1  0
 18 27  1  0
 19 26  4  0
 19 31  4  0
 20 25  4  0
 20 29  4  0
 22 25  4  0
 22 31  4  0
 22 32  4  0
 23 26  4  0
 24 33  4  0
 24 34  4  0
 26 28  4  0
 28 30  4  0
 28 32  4  0
M  END
$$$$

 Created by Python create_sdf_string function

 34 89  0  0  0  0  0  0  0  0999 V2000
    6.9180   -8.3998   15.6376 C   0  0  0  0  0  0  0  0  0  0  0  0
   11.4119   -3.4193   22.1497 C   0  0  0  0  0  0  0  0  0  0  0  0
    9.2570   -7.2315   18.4609 C   0  0  0  0  0  0  0  0  0  0  0  0
    1.8864  -10.0360   18.6892 C   0  0  0  0  0  0  0  0  0  0  0  0
   -0.1531  -11.7954   18.4045 N   0  0  0  0  0  0  0  0  0  0  0  0
    7.1568   -7.3967   16.3015 C   0  0  0  0  0  0  0  0  0  0  0  0
    0.0129  -11.2384   17.1909 C   0  0  0  0  0  0  0  0  0  0  0  0
   11.1204   -4.6013   22.0381 C   0  0  0  0  0  0  0  0  0  0  0  0
    5.7671   -9.3314   15.5822 N   0  0  0  0  0  0  0  0  0  0  0  0
    3.7752   -8.0308   16.1742 O   0  0  0  0  0  0  0  0  0  0  0  0
   -1.3304  -12.1600   16.3828 N   0  0  0  0  0  0  0  0  0  0  0  0
    4.9285   -7.7217   17.1079 C   0  0  0  0  0  0  0  0  0  0  0  0
   -0.8866  -10.7192   14.1771 N   0  0  0  0  0  0  0  0  0  0  0  0
    6.1185   -7.0355   17.6378 C   0  0  0  0  0  0  0  0  0  0  0  0
    2.0067   -8.9204   16.9768 N   0  0  0  0  0  0  0  0  0  0  0  0
    3.6039   -8.9272   15.9639 C   0  0  0  0  0  0  0  0  0  0  0  0
   -1.4257  -11.4518   15.0401 C   0  0  0  0  0  0  0  0  0  0  0  0
   10.8952   -3.1881   17.9322 C   0  0  0  0  0  0  0  0  0  0  0  0
    8.1454   -6.8055   16.7115 C   0  0  0  0  0  0  0  0  0  0  0  0
    6.6076   -9.2607   15.6058 O   0  0  0  0  0  0  0  0  0  0  0  0
    9.4664   -5.0705   17.1797 C   0  0  0  0  0  0  0  0  0  0  0  0
   11.1642   -2.7864   20.5967 N   0  0  0  0  0  0  0  0  0  0  0  0
    0.4922  -10.6917   16.2973 C   0  0  0  0  0  0  0  0  0  0  0  0
   10.9233   -3.5753   19.4193 C   0  0  0  0  0  0  0  0  0  0  0  0
    1.3508  -11.0011   19.1826 C   0  0  0  0  0  0  0  0  0  0  0  0
   10.6656   -4.7146   19.6949 C   0  0  0  0  0  0  0  0  0  0  0  0
    8.8044   -7.6572   17.4862 C   0  0  0  0  0  0  0  0  0  0  0  0
   10.5650   -5.0559   21.4672 C   0  0  0  0  0  0  0  0  0  0  0  0
    9.9711   -3.4739   17.2060 C   0  0  0  0  0  0  0  0  0  0  0  0
   10.3127   -5.6809   18.9062 P   0  0  0  0  0  0  0  0  0  0  0  0
    1.0036  -10.1694   17.5601 C   0  0  0  0  0  0  0  0  0  0  0  0
   -0.0144  -10.2273   15.0512 C   0  0  0  0  0  0  0  0  0  0  0  0
    1.5569  -11.3931   20.1564 He  0  0  0  0  0  0  0  0  0  0  0  0
    8.6629   -5.4396   16.7831 He  0  0  0  0  0  0  0  0  0  0  0  0
  1  2  4  0
  1  6  1  0
  1  7  1  0
  1 16  3  0
  1 19  4  0
  1 25  4  0
  1 26  3  0
  1 31  2  0
  2  8  4  0
  2 22  4  0
  3 10  4  0
  3 12  3  0
  3 15  2  0
  3 22  3  0
  3 27  4  0
  3 30  4  0
  4 12  2  0
  4 18  3  0
  4 19  3  0
  4 25  4  0
  4 26  2  0
  4 31  4  0
  5  7  4  0
  5 13  2  0
  5 20  4  0
  5 25  4  0
  5 27  2  0
  6 13  4  0
  6 14  3  0
  6 17  1  0
  6 18  4  0
  7 10  3  0
  7 23  4  0
  7 32  3  0
  8 28  4  0
  9 10  1  0
  9 12  2  0
  9 13  1  0
  9 20  1  0
  9 30  3  0
 10 11  1  0
 10 12  1  0
 10 14  4  0
 10 16  1  0
 10 24  2  0
 11 16  1  0
 11 17  4  0
 11 22  1  0
 11 25  1  0
 11 27  3  0
 11 28  2  0
 12 14  1  0
 12 15  4  0
 12 20  3  0
 12 32  2  0
 13 15  3  0
 13 17  4  0
 13 21  3  0
 13 32  4  0
 14 32  4  0
 15 16  1  0
 15 20  4  0
 15 21  4  0
 15 27  3  0
 15 31  1  0
 16 24  4  0
 16 29  2  0
 16 30  3  0
 17 19  2  0
 18 21  2  0
 18 24  4  0
 18 29  4  0
 19 27  3  0
 20 23  3  0
 20 28  2  0
 21 29  4  0
 21 30  4  0
 22 24  4  0
 22 28  1  0
 23 29  2  0
 23 30  2  0
 23 32  4  0
 24 26  4  0
 24 27  3  0
 24 28  3  0
 25 31  1  0
 26 28  4  0
 26 30  3  0
 26 31  4  0
M  END
$$$$

 Created by Python create_sdf_string function

 34 39  0  0  0  0  0  0  0  0999 V2000
    7.2021   -8.3272   15.5271 C   0  0  0  0  0  0  0  0  0  0  0  0
   11.3814   -3.2646   21.8935 C   0  0  0  0  0  0  0  0  0  0  0  0
    9.8495   -6.9869   18.7318 C   0  0  0  0  0  0  0  0  0  0  0  0
    1.7716  -10.3754   18.4854 C   0  0  0  0  0  0  0  0  0  0  0  0
    0.0321  -11.7749   18.3848 N   0  0  0  0  0  0  0  0  0  0  0  0
    7.0635   -7.1822   16.3395 C   0  0  0  0  0  0  0  0  0  0  0  0
   -0.2668  -11.4382   17.0784 C   0  0  0  0  0  0  0  0  0  0  0  0
   11.0517   -4.5958   22.1120 C   0  0  0  0  0  0  0  0  0  0  0  0
    5.3528   -9.1067   15.5373 N   0  0  0  0  0  0  0  0  0  0  0  0
    4.3717   -8.3747   16.0606 C   0  0  0  0  0  0  0  0  0  0  0  0
   -1.2710  -12.0253   16.3578 N   0  0  0  0  0  0  0  0  0  0  0  0
    4.8904   -7.7502   17.1559 C   0  0  0  0  0  0  0  0  0  0  0  0
   -0.7616  -10.7468   14.4623 N   0  0  0  0  0  0  0  0  0  0  0  0
    5.9751   -7.1582   17.3505 C   0  0  0  0  0  0  0  0  0  0  0  0
    2.0750   -8.7796   16.7187 N   0  0  0  0  0  0  0  0  0  0  0  0
    3.2607   -9.0075   15.9324 C   0  0  0  0  0  0  0  0  0  0  0  0
   -1.4819  -11.6723   15.0805 C   0  0  0  0  0  0  0  0  0  0  0  0
    1.2255  -11.6178   20.3785 N   0  0  0  0  0  0  0  0  0  0  0  0
   10.7973   -3.0184   18.2789 C   0  0  0  0  0  0  0  0  0  0  0  0
    8.2898   -6.7758   16.8934 C   0  0  0  0  0  0  0  0  0  0  0  0
    6.4563   -9.4344   15.6094 C   0  0  0  0  0  0  0  0  0  0  0  0
    9.6858   -4.9299   17.5283 C   0  0  0  0  0  0  0  0  0  0  0  0
   11.3378   -2.7789   20.6469 N   0  0  0  0  0  0  0  0  0  0  0  0
    0.4738  -10.5231   16.4607 C   0  0  0  0  0  0  0  0  0  0  0  0
    8.7694   -5.5470   16.6478 N   0  0  0  0  0  0  0  0  0  0  0  0
   10.8996   -3.5441   19.5592 C   0  0  0  0  0  0  0  0  0  0  0  0
    0.9967  -11.2663   19.0868 C   0  0  0  0  0  0  0  0  0  0  0  0
   10.5209   -4.8570   19.6996 C   0  0  0  0  0  0  0  0  0  0  0  0
    9.0484   -7.5432   17.8170 C   0  0  0  0  0  0  0  0  0  0  0  0
   10.6879   -5.3959   21.0251 C   0  0  0  0  0  0  0  0  0  0  0  0
   10.2003   -3.7078   17.2888 C   0  0  0  0  0  0  0  0  0  0  0  0
   10.0165   -5.5472   18.6738 C   0  0  0  0  0  0  0  0  0  0  0  0
    1.4552   -9.9376   17.2280 C   0  0  0  0  0  0  0  0  0  0  0  0
    0.2218  -10.1385   15.0937 C   0  0  0  0  0  0  0  0  0  0  0  0
  1  6  1  0
  1 21  1  0
  2  8  4  0
  2 23  4  0
  3 29  4  0
  3 32  4  0
  4 27  4  0
  4 33  4  0
  5  7  4  0
  5 27  4  0
  6 14  1  0
  6 20  1  0
  7 11  4  0
  7 24  4  0
  8 30  4  0
  9 10  1  0
  9 21  1  0
 10 12  1  0
 10 16  1  0
 11 17  4  0
 12 14  1  0
 13 17  4  0
 13 34  4  0
 15 16  1  0
 15 33  1  0
 18 27  1  0
 19 26  4  0
 19 31  4  0
 20 25  4  0
 20 29  4  0
 22 25  4  0
 22 31  4  0
 22 32  4  0
 23 26  4  0
 24 33  4  0
 24 34  4  0
 26 28  4  0
 28 30  4  0
 28 32  4  0
M  END
$$$$

 Created by Python create_sdf_string function

 34 74  0  0  0  0  0  0  0  0999 V2000
    7.3963   -9.3298   15.5645 C   0  0  0  0  0  0  0  0  0  0  0  0
   11.5429   -3.3484   21.8114 C   0  0  0  0  0  0  0  0  0  0  0  0
    0.1329  -11.6046   18.6110 N   0  0  0  0  0  0  0  0  0  0  0  0
    6.6378   -7.3708   16.0823 C   0  0  0  0  0  0  0  0  0  0  0  0
   -0.3689  -11.4154   17.0049 C   0  0  0  0  0  0  0  0  0  0  0  0
   11.0795   -4.5825   22.2243 C   0  0  0  0  0  0  0  0  0  0  0  0
    4.9354   -9.3099   15.6112 N   0  0  0  0  0  0  0  0  0  0  0  0
    4.0454   -7.9806   16.2002 C   0  0  0  0  0  0  0  0  0  0  0  0
   -1.2729  -11.6113   16.2808 N   0  0  0  0  0  0  0  0  0  0  0  0
    4.8178   -7.6727   16.8913 C   0  0  0  0  0  0  0  0  0  0  0  0
   -0.4922  -10.5284   14.3014 N   0  0  0  0  0  0  0  0  0  0  0  0
    5.2537   -7.5088   17.3786 C   0  0  0  0  0  0  0  0  0  0  0  0
    1.8865   -8.3815   16.5766 N   0  0  0  0  0  0  0  0  0  0  0  0
    3.7507   -8.6071   15.2253 C   0  0  0  0  0  0  0  0  0  0  0  0
   -1.2372  -11.9023   15.0826 F   0  0  0  0  0  0  0  0  0  0  0  0
    0.7017  -11.1729   20.5170 N   0  0  0  0  0  0  0  0  0  0  0  0
   10.8401   -3.0725   18.2565 C   0  0  0  0  0  0  0  0  0  0  0  0
    8.5342   -6.7972   16.8648 C   0  0  0  0  0  0  0  0  0  0  0  0
    6.3874   -9.6119   15.3565 C   0  0  0  0  0  0  0  0  0  0  0  0
    9.5057   -4.8055   17.7365 C   0  0  0  0  0  0  0  0  0  0  0  0
   11.3181   -2.8870   20.6895 N   0  0  0  0  0  0  0  0  0  0  0  0
    0.6094  -10.5501   16.7861 C   0  0  0  0  0  0  0  0  0  0  0  0
    8.6602   -5.7889   16.4997 N   0  0  0  0  0  0  0  0  0  0  0  0
   11.0470   -3.5681   19.4549 C   0  0  0  0  0  0  0  0  0  0  0  0
    0.5231  -11.4437   18.7450 Br  0  0  0  0  0  0  0  0  0  0  0  0
   10.4749   -4.7932   19.7589 C   0  0  0  0  0  0  0  0  0  0  0  0
    8.6096   -6.9246   17.3207 C   0  0  0  0  0  0  0  0  0  0  0  0
   10.5377   -5.7315   20.6735 C   0  0  0  0  0  0  0  0  0  0  0  0
    9.7492   -5.3392   18.3732 C   0  0  0  0  0  0  0  0  0  0  0  0
    1.6302  -10.2729   17.1336 C   0  0  0  0  0  0  0  0  0  0  0  0
    9.6979   -6.8669   19.3352 He  0  0  0  0  0  0  0  0  0  0  0  0
    1.6931  -10.3997   18.7827 He  0  0  0  0  0  0  0  0  0  0  0  0
   10.1618   -3.7187   17.2219 He  0  0  0  0  0  0  0  0  0  0  0  0
    0.1428  -10.0193   15.1978 He  0  0  0  0  0  0  0  0  0  0  0  0
  1  4  1  0
  1  6  3  0
  1 14  3  0
  1 20  4  0
  1 24  1  0
  1 25  2  0
  2  3  3  0
  2  6  4  0
  2 22  4  0
  2 27  4  0
  3  4  4  0
  3  5  4  0
  4  5  4  0
  4 18  1  0
  4 22  1  0
  4 26  4  0
  5  9  4  0
  5 10  1  0
  5 22  4  0
  6 12  2  0
  6 28  4  0
  6 29  3  0
  6 30  4  0
  7  8  1  0
  7  9  4  0
  7 19  2  0
  8 10  1  0
  8 12  3  0
  8 14  1  0
  8 18  4  0
  8 25  1  0
  8 27  1  0
  9 10  2  0
  9 14  4  0
  9 15  4  0
  9 24  3  0
  9 25  4  0
  9 29  2  0
 10 12  3  0
 10 21  3  0
 10 22  3  0
 11 15  4  0
 11 27  3  0
 12 15  1  0
 12 20  1  0
 12 21  4  0
 12 25  4  0
 12 26  2  0
 13 14  3  0
 14 25  1  0
 15 30  4  0
 16 19  3  0
 16 25  1  0
 17 19  4  0
 17 23  2  0
 17 24  4  0
 17 26  2  0
 18 22  4  0
 18 23  4  0
 19 21  3  0
 19 28  2  0
 20 23  4  0
 20 27  4  0
 20 29  4  0
 21 24  4  0
 21 25  2  0
 21 28  4  0
 22 26  2  0
 22 30  4  0
 23 29  3  0
 24 27  2  0
 26 28  4  0
 26 29  4  0
 27 28  1  0
M  END
$$$$

 Created by Python create_sdf_string function

 34 39  0  0  0  0  0  0  0  0999 V2000
    7.2328   -8.6803   15.6379 C   0  0  0  0  0  0  0  0  0  0  0  0
   11.4834   -3.3630   21.8340 C   0  0  0  0  0  0  0  0  0  0  0  0
    9.5895   -6.9322   18.7991 C   0  0  0  0  0  0  0  0  0  0  0  0
    1.6863  -10.3191   18.4964 N   0  0  0  0  0  0  0  0  0  0  0  0
   -0.1226  -11.6448   18.3007 N   0  0  0  0  0  0  0  0  0  0  0  0
    6.9819   -7.4188   16.2486 C   0  0  0  0  0  0  0  0  0  0  0  0
   -0.3067  -11.3666   16.9903 C   0  0  0  0  0  0  0  0  0  0  0  0
   11.1504   -4.6755   22.0513 C   0  0  0  0  0  0  0  0  0  0  0  0
    4.9987   -9.3777   15.2659 N   0  0  0  0  0  0  0  0  0  0  0  0
    4.2548   -8.4351   15.9022 C   0  0  0  0  0  0  0  0  0  0  0  0
   -1.2310  -11.9998   16.2431 N   0  0  0  0  0  0  0  0  0  0  0  0
    4.8081   -7.6772   16.9878 C   0  0  0  0  0  0  0  0  0  0  0  0
   -0.6068  -10.7375   14.3794 N   0  0  0  0  0  0  0  0  0  0  0  0
    5.7860   -7.5316   17.1732 C   0  0  0  0  0  0  0  0  0  0  0  0
    2.1150   -8.7273   16.7765 N   0  0  0  0  0  0  0  0  0  0  0  0
    2.9677   -8.5832   15.6674 C   0  0  0  0  0  0  0  0  0  0  0  0
   -1.3968  -11.6509   15.0006 C   0  0  0  0  0  0  0  0  0  0  0  0
    0.8847  -11.4164   20.4073 N   0  0  0  0  0  0  0  0  0  0  0  0
   10.7888   -3.0455   18.2269 C   0  0  0  0  0  0  0  0  0  0  0  0
    8.1853   -6.8145   16.8229 C   0  0  0  0  0  0  0  0  0  0  0  0
    6.2282   -9.6587   15.3646 C   0  0  0  0  0  0  0  0  0  0  0  0
    9.6039   -4.9615   17.4927 C   0  0  0  0  0  0  0  0  0  0  0  0
   11.4126   -2.8196   20.6160 N   0  0  0  0  0  0  0  0  0  0  0  0
    0.4955  -10.4570   16.4016 C   0  0  0  0  0  0  0  0  0  0  0  0
    8.6699   -5.5990   16.6157 N   0  0  0  0  0  0  0  0  0  0  0  0
   10.9179   -3.5454   19.5373 C   0  0  0  0  0  0  0  0  0  0  0  0
    0.7964  -11.1264   19.0648 C   0  0  0  0  0  0  0  0  0  0  0  0
   10.4800   -4.8642   19.6487 C   0  0  0  0  0  0  0  0  0  0  0  0
    8.8631   -7.4953   17.9070 C   0  0  0  0  0  0  0  0  0  0  0  0
   10.6496   -5.4049   20.9956 C   0  0  0  0  0  0  0  0  0  0  0  0
   10.0978   -3.7352   17.2379 C   0  0  0  0  0  0  0  0  0  0  0  0
    9.9107   -5.5411   18.6535 C   0  0  0  0  0  0  0  0  0  0  0  0
    1.4611   -9.8422   17.2300 C   0  0  0  0  0  0  0  0  0  0  0  0
    0.3051  -10.1248   15.0054 C   0  0  0  0  0  0  0  0  0  0  0  0
  1  6  1  0
  1 21  1  0
  2  8  4  0
  2 23  4  0
  3 29  4  0
  3 32  4  0
  4 27  4  0
  4 33  4  0
  5  7  4  0
  5 27  4  0
  6 14  1  0
  6 20  1  0
  7 11  4  0
  7 24  4  0
  8 30  4  0
  9 10  1  0
  9 21  1  0
 10 12  1  0
 10 16  1  0
 11 17  4  0
 12 14  1  0
 13 17  4  0
 13 34  4  0
 15 16  1  0
 15 33  1  0
 18 27  1  0
 19 26  4  0
 19 31  4  0
 20 25  4  0
 20 29  4  0
 22 25  4  0
 22 31  4  0
 22 32  4  0
 23 26  4  0
 24 33  4  0
 24 34  4  0
 26 28  4  0
 28 30  4  0
 28 32  4  0
M  END
$$$$

 Created by Python create_sdf_string function

 34 76  0  0  0  0  0  0  0  0999 V2000
    6.6871   -7.9859   15.9585 O   0  0  0  0  0  0  0  0  0  0  0  0
   11.3284   -3.1193   21.6140 C   0  0  0  0  0  0  0  0  0  0  0  0
    9.8140   -6.8578   18.3740 C   0  0  0  0  0  0  0  0  0  0  0  0
    1.6088  -10.2635   18.3384 N   0  0  0  0  0  0  0  0  0  0  0  0
    0.1370  -11.7603   18.5105 N   0  0  0  0  0  0  0  0  0  0  0  0
    6.8997   -7.9488   16.9050 O   0  0  0  0  0  0  0  0  0  0  0  0
   -0.3238  -11.5520   16.9045 C   0  0  0  0  0  0  0  0  0  0  0  0
    5.0466   -8.6983   16.1196 C   0  0  0  0  0  0  0  0  0  0  0  0
   -1.0875  -11.8827   16.2600 N   0  0  0  0  0  0  0  0  0  0  0  0
    5.4515   -7.5107   17.1817 C   0  0  0  0  0  0  0  0  0  0  0  0
   -0.4490  -10.6830   14.3399 N   0  0  0  0  0  0  0  0  0  0  0  0
    6.5768   -7.6006   17.2283 C   0  0  0  0  0  0  0  0  0  0  0  0
    1.7134   -8.4942   16.2939 N   0  0  0  0  0  0  0  0  0  0  0  0
    3.5718   -8.8333   15.3997 C   0  0  0  0  0  0  0  0  0  0  0  0
   -1.3665  -11.9299   14.9968 Cl  0  0  0  0  0  0  0  0  0  0  0  0
    0.6502  -11.1338   20.4683 N   0  0  0  0  0  0  0  0  0  0  0  0
    7.9660   -6.8982   16.4066 C   0  0  0  0  0  0  0  0  0  0  0  0
    5.9956   -9.8965   15.6523 C   0  0  0  0  0  0  0  0  0  0  0  0
    9.3923   -5.0173   17.3757 C   0  0  0  0  0  0  0  0  0  0  0  0
   11.5804   -3.1001   20.3773 N   0  0  0  0  0  0  0  0  0  0  0  0
    0.5267  -10.3111   16.4180 C   0  0  0  0  0  0  0  0  0  0  0  0
    8.8006   -5.6239   16.4074 N   0  0  0  0  0  0  0  0  0  0  0  0
   10.8459   -3.3858   19.5639 C   0  0  0  0  0  0  0  0  0  0  0  0
    1.0992  -11.1151   18.8940 C   0  0  0  0  0  0  0  0  0  0  0  0
   10.7018   -4.7963   19.4452 C   0  0  0  0  0  0  0  0  0  0  0  0
    8.4822   -7.7005   17.5727 C   0  0  0  0  0  0  0  0  0  0  0  0
   10.3024   -3.7281   17.1907 C   0  0  0  0  0  0  0  0  0  0  0  0
   10.0692   -6.1579   18.6366 C   0  0  0  0  0  0  0  0  0  0  0  0
    1.5262   -9.7223   17.8528 C   0  0  0  0  0  0  0  0  0  0  0  0
    0.3941  -10.1044   14.9242 C   0  0  0  0  0  0  0  0  0  0  0  0
   10.9069   -4.7749   22.1906 He  0  0  0  0  0  0  0  0  0  0  0  0
    4.6995   -9.2343   14.9196 He  0  0  0  0  0  0  0  0  0  0  0  0
   10.8183   -2.8212   18.2150 He  0  0  0  0  0  0  0  0  0  0  0  0
   10.4902   -5.8038   20.7527 He  0  0  0  0  0  0  0  0  0  0  0  0
  1  3  4  0
  1  6  1  0
  1  8  2  0
  1 10  3  0
  1 11  2  0
  1 18  1  0
  1 19  4  0
  1 22  1  0
  1 24  3  0
  1 30  3  0
  2  3  3  0
  2 17  2  0
  2 20  4  0
  2 27  2  0
  2 29  3  0
  3  7  1  0
  3  8  3  0
  3 11  1  0
  3 14  4  0
  3 27  4  0
  3 28  4  0
  3 30  4  0
  4  8  4  0
  4 14  2  0
  4 20  2  0
  4 24  4  0
  4 29  4  0
  4 30  4  0
  5  6  3  0
  5  7  4  0
  5 24  4  0
  5 30  2  0
  6 12  1  0
  6 17  1  0
  6 24  4  0
  7  9  4  0
  7 12  3  0
  7 16  3  0
  7 18  4  0
  7 21  4  0
  8 10  1  0
  8 14  1  0
  8 15  2  0
  8 20  3  0
  8 29  3  0
  9 15  4  0
 10 12  1  0
 10 19  2  0
 10 29  4  0
 11 13  1  0
 11 15  4  0
 11 25  4  0
 11 30  1  0
 12 16  3  0
 12 19  4  0
 12 27  4  0
 13 19  4  0
 13 28  1  0
 13 29  3  0
 14 16  2  0
 14 27  4  0
 15 17  1  0
 16 26  3  0
 16 27  2  0
 17 22  4  0
 17 26  4  0
 19 22  4  0
 19 23  2  0
 19 27  4  0
 19 28  4  0
 21 28  3  0
 21 29  4  0
 21 30  4  0
 22 26  1  0
 23 26  1  0
 23 29  4  0
M  END
$$$$

 Created by Python create_sdf_string function

 34 39  0  0  0  0  0  0  0  0999 V2000
    7.1196   -8.5738   15.6167 C   0  0  0  0  0  0  0  0  0  0  0  0
   11.3701   -3.4186   21.7740 C   0  0  0  0  0  0  0  0  0  0  0  0
    9.8672   -7.0390   18.6448 C   0  0  0  0  0  0  0  0  0  0  0  0
    1.6252  -10.1433   18.4595 N   0  0  0  0  0  0  0  0  0  0  0  0
   -0.0105  -11.6678   18.2971 N   0  0  0  0  0  0  0  0  0  0  0  0
    7.0427   -7.5557   16.3769 N   0  0  0  0  0  0  0  0  0  0  0  0
   -0.1791  -11.4133   16.9795 C   0  0  0  0  0  0  0  0  0  0  0  0
   11.0442   -4.7407   21.9518 C   0  0  0  0  0  0  0  0  0  0  0  0
    4.9295   -9.2900   14.9957 C   0  0  0  0  0  0  0  0  0  0  0  0
    4.4000   -8.3984   15.8591 C   0  0  0  0  0  0  0  0  0  0  0  0
   -1.1342  -12.0894   16.2193 N   0  0  0  0  0  0  0  0  0  0  0  0
    4.8966   -7.7865   17.0793 C   0  0  0  0  0  0  0  0  0  0  0  0
   -0.5797  -10.7976   14.3373 N   0  0  0  0  0  0  0  0  0  0  0  0
    6.0692   -7.6751   17.4931 C   0  0  0  0  0  0  0  0  0  0  0  0
    1.9895   -8.6246   16.8360 N   0  0  0  0  0  0  0  0  0  0  0  0
    3.1381   -8.5766   15.8127 C   0  0  0  0  0  0  0  0  0  0  0  0
   -1.2899  -11.7769   14.9506 C   0  0  0  0  0  0  0  0  0  0  0  0
    0.9446  -11.3319   20.3528 N   0  0  0  0  0  0  0  0  0  0  0  0
   10.7982   -3.0883   18.1646 C   0  0  0  0  0  0  0  0  0  0  0  0
    8.2672   -6.9836   16.8072 C   0  0  0  0  0  0  0  0  0  0  0  0
    6.2050   -9.7302   15.4907 C   0  0  0  0  0  0  0  0  0  0  0  0
    9.6227   -5.0336   17.3649 C   0  0  0  0  0  0  0  0  0  0  0  0
   11.3061   -2.8717   20.5572 N   0  0  0  0  0  0  0  0  0  0  0  0
    0.5103  -10.4660   16.3551 C   0  0  0  0  0  0  0  0  0  0  0  0
    8.7226   -5.7382   16.5468 N   0  0  0  0  0  0  0  0  0  0  0  0
   10.9043   -3.6233   19.4417 C   0  0  0  0  0  0  0  0  0  0  0  0
    0.8413  -11.0466   19.0185 C   0  0  0  0  0  0  0  0  0  0  0  0
   10.5211   -4.9247   19.5233 C   0  0  0  0  0  0  0  0  0  0  0  0
    9.0248   -7.6569   17.7553 C   0  0  0  0  0  0  0  0  0  0  0  0
   10.6441   -5.4908   20.8828 C   0  0  0  0  0  0  0  0  0  0  0  0
   10.0858   -3.7862   17.1790 C   0  0  0  0  0  0  0  0  0  0  0  0
   10.0338   -5.6238   18.5093 C   0  0  0  0  0  0  0  0  0  0  0  0
    1.4521   -9.7795   17.2003 C   0  0  0  0  0  0  0  0  0  0  0  0
    0.3072  -10.1110   14.9952 C   0  0  0  0  0  0  0  0  0  0  0  0
  1  6  1  0
  1 21  1  0
  2  8  4  0
  2 23  4  0
  3 29  4  0
  3 32  4  0
  4 27  4  0
  4 33  4  0
  5  7  4  0
  5 27  4  0
  6 14  1  0
  6 20  1  0
  7 11  4  0
  7 24  4  0
  8 30  4  0
  9 10  1  0
  9 21  1  0
 10 12  1  0
 10 16  1  0
 11 17  4  0
 12 14  1  0
 13 17  4  0
 13 34  4  0
 15 16  1  0
 15 33  1  0
 18 27  1  0
 19 26  4  0
 19 31  4  0
 20 25  4  0
 20 29  4  0
 22 25  4  0
 22 31  4  0
 22 32  4  0
 23 26  4  0
 24 33  4  0
 24 34  4  0
 26 28  4  0
 28 30  4  0
 28 32  4  0
M  END
$$$$

 Created by Python create_sdf_string function

 34 90  0  0  0  0  0  0  0  0999 V2000
    6.6970   -8.5368   16.0137 C   0  0  0  0  0  0  0  0  0  0  0  0
   11.4299   -3.3304   21.8483 C   0  0  0  0  0  0  0  0  0  0  0  0
   10.1433   -7.1345   18.4941 Cl  0  0  0  0  0  0  0  0  0  0  0  0
    1.8858   -9.9519   18.3519 N   0  0  0  0  0  0  0  0  0  0  0  0
   -0.1889  -11.6493   18.4481 N   0  0  0  0  0  0  0  0  0  0  0  0
    7.1822   -7.3299   16.1245 N   0  0  0  0  0  0  0  0  0  0  0  0
   -0.0806  -11.5033   17.0500 C   0  0  0  0  0  0  0  0  0  0  0  0
   11.3386   -5.0497   21.9637 C   0  0  0  0  0  0  0  0  0  0  0  0
    5.2712   -9.4245   14.7587 C   0  0  0  0  0  0  0  0  0  0  0  0
    4.2881   -8.5922   15.3772 C   0  0  0  0  0  0  0  0  0  0  0  0
   -0.9454  -12.5678   16.2999 N   0  0  0  0  0  0  0  0  0  0  0  0
    4.7438   -7.7925   17.2742 C   0  0  0  0  0  0  0  0  0  0  0  0
   -0.5372  -10.9305   14.1990 N   0  0  0  0  0  0  0  0  0  0  0  0
    5.7743   -7.6923   17.8901 C   0  0  0  0  0  0  0  0  0  0  0  0
    1.5344   -8.8982   16.2301 N   0  0  0  0  0  0  0  0  0  0  0  0
    3.1046   -8.6519   15.7451 C   0  0  0  0  0  0  0  0  0  0  0  0
   -1.2541  -11.8493   15.0960 C   0  0  0  0  0  0  0  0  0  0  0  0
    0.7335  -11.7784   20.9054 N   0  0  0  0  0  0  0  0  0  0  0  0
   10.7623   -3.0714   18.1536 C   0  0  0  0  0  0  0  0  0  0  0  0
    8.0297   -7.1723   16.6290 C   0  0  0  0  0  0  0  0  0  0  0  0
    6.7154   -9.8578   15.4575 O   0  0  0  0  0  0  0  0  0  0  0  0
    9.5641   -5.2573   17.4156 C   0  0  0  0  0  0  0  0  0  0  0  0
   11.1925   -2.8154   20.4514 N   0  0  0  0  0  0  0  0  0  0  0  0
    0.4060  -10.3724   16.1320 C   0  0  0  0  0  0  0  0  0  0  0  0
    8.7494   -5.7226   16.4939 N   0  0  0  0  0  0  0  0  0  0  0  0
    0.7450  -11.2735   18.9284 C   0  0  0  0  0  0  0  0  0  0  0  0
   10.5869   -4.8495   19.5213 C   0  0  0  0  0  0  0  0  0  0  0  0
    8.9884   -7.9803   17.6555 P   0  0  0  0  0  0  0  0  0  0  0  0
   10.0734   -3.6390   17.2794 C   0  0  0  0  0  0  0  0  0  0  0  0
   10.3662   -5.7490   18.6986 F   0  0  0  0  0  0  0  0  0  0  0  0
    1.9184   -9.7201   17.4429 C   0  0  0  0  0  0  0  0  0  0  0  0
    0.2728  -10.1879   15.2797 C   0  0  0  0  0  0  0  0  0  0  0  0
   10.9842   -3.4786   19.6405 He  0  0  0  0  0  0  0  0  0  0  0  0
   11.1431   -5.6649   21.1586 He  0  0  0  0  0  0  0  0  0  0  0  0
  1  7  4  0
  1 10  3  0
  1 12  3  0
  1 13  1  0
  1 14  4  0
  1 18  1  0
  1 20  4  0
  1 21  1  0
  1 24  4  0
  1 29  1  0
  2 15  1  0
  2 23  4  0
  3 19  3  0
  3 28  4  0
  3 30  4  0
  4  6  2  0
  4 19  4  0
  4 26  1  0
  4 31  4  0
  5  7  4  0
  5  9  1  0
  5 23  3  0
  5 26  4  0
  5 27  3  0
  6  9  2  0
  6 14  1  0
  6 20  1  0
  6 23  1  0
  6 26  2  0
  6 27  4  0
  6 30  4  0
  7  8  3  0
  7  9  2  0
  7 11  4  0
  7 20  3  0
  7 24  4  0
  8 16  3  0
  9 10  1  0
  9 14  1  0
  9 17  4  0
  9 21  1  0
  9 23  1  0
 10 12  1  0
 10 13  1  0
 10 15  3  0
 10 16  4  0
 10 25  2  0
 10 27  2  0
 10 30  4  0
 10 32  1  0
 11 15  1  0
 11 17  4  0
 12 14  1  0
 12 15  3  0
 12 26  1  0
 13 16  4  0
 13 17  4  0
 13 32  4  0
 14 23  1  0
 15 16  1  0
 15 17  2  0
 15 29  2  0
 15 30  1  0
 15 31  4  0
 16 18  4  0
 17 21  3  0
 17 31  2  0
 18 20  3  0
 18 26  1  0
 18 29  2  0
 18 30  2  0
 19 28  2  0
 19 29  4  0
 20 25  4  0
 20 28  4  0
 20 29  2  0
 20 32  4  0
 21 23  1  0
 21 25  3  0
 22 25  4  0
 22 29  4  0
 22 30  4  0
 23 24  3  0
 23 31  4  0
 24 31  4  0
 26 30  1  0
 27 30  4  0
 27 32  1  0
 28 31  2  0
 31 32  1  0
M  END
$$$$

 Created by Python create_sdf_string function

 34 39  0  0  0  0  0  0  0  0999 V2000
    7.1081   -8.6576   15.7700 C   0  0  0  0  0  0  0  0  0  0  0  0
   11.4493   -3.3930   21.8354 C   0  0  0  0  0  0  0  0  0  0  0  0
    9.9879   -7.1328   18.6756 C   0  0  0  0  0  0  0  0  0  0  0  0
    1.6274  -10.2025   18.4748 N   0  0  0  0  0  0  0  0  0  0  0  0
   -0.0259  -11.7871   18.3213 N   0  0  0  0  0  0  0  0  0  0  0  0
    7.0896   -7.5634   16.5078 N   0  0  0  0  0  0  0  0  0  0  0  0
   -0.1956  -11.5455   16.9942 C   0  0  0  0  0  0  0  0  0  0  0  0
   11.3041   -4.7821   22.0026 C   0  0  0  0  0  0  0  0  0  0  0  0
    5.1180   -9.3648   14.9821 C   0  0  0  0  0  0  0  0  0  0  0  0
    4.3076   -8.5336   15.7780 C   0  0  0  0  0  0  0  0  0  0  0  0
   -1.0798  -12.2735   16.2353 N   0  0  0  0  0  0  0  0  0  0  0  0
    4.7065   -7.9147   17.0621 C   0  0  0  0  0  0  0  0  0  0  0  0
   -0.6035  -10.9707   14.3536 N   0  0  0  0  0  0  0  0  0  0  0  0
    6.0163   -7.6908   17.3988 C   0  0  0  0  0  0  0  0  0  0  0  0
    2.0021   -8.8067   16.6114 N   0  0  0  0  0  0  0  0  0  0  0  0
    2.9802   -8.7517   15.5094 C   0  0  0  0  0  0  0  0  0  0  0  0
   -1.2004  -11.9953   14.9580 C   0  0  0  0  0  0  0  0  0  0  0  0
    0.9379  -11.4474   20.5005 N   0  0  0  0  0  0  0  0  0  0  0  0
   10.6960   -3.0914   18.2807 C   0  0  0  0  0  0  0  0  0  0  0  0
    8.3280   -7.0208   16.9455 C   0  0  0  0  0  0  0  0  0  0  0  0
    6.4827   -9.6308   15.3074 C   0  0  0  0  0  0  0  0  0  0  0  0
    9.6803   -5.0974   17.5100 C   0  0  0  0  0  0  0  0  0  0  0  0
   11.2948   -2.8591   20.6423 N   0  0  0  0  0  0  0  0  0  0  0  0
    0.4977  -10.5814   16.3697 C   0  0  0  0  0  0  0  0  0  0  0  0
    8.7217   -5.7878   16.7009 N   0  0  0  0  0  0  0  0  0  0  0  0
   10.9060   -3.6304   19.5452 C   0  0  0  0  0  0  0  0  0  0  0  0
    0.8426  -11.1355   19.0736 C   0  0  0  0  0  0  0  0  0  0  0  0
   10.6683   -5.0106   19.6323 C   0  0  0  0  0  0  0  0  0  0  0  0
    9.1585   -7.7430   17.8061 C   0  0  0  0  0  0  0  0  0  0  0  0
   10.9397   -5.5610   20.9364 C   0  0  0  0  0  0  0  0  0  0  0  0
   10.0694   -3.8253   17.2975 C   0  0  0  0  0  0  0  0  0  0  0  0
   10.1347   -5.7067   18.6108 C   0  0  0  0  0  0  0  0  0  0  0  0
    1.4476   -9.8902   17.1634 C   0  0  0  0  0  0  0  0  0  0  0  0
    0.2487  -10.2560   15.0112 C   0  0  0  0  0  0  0  0  0  0  0  0
  1  6  1  0
  1 21  1  0
  2  8  4  0
  2 23  4  0
  3 29  4  0
  3 32  4  0
  4 27  4  0
  4 33  4  0
  5  7  4  0
  5 27  4  0
  6 14  1  0
  6 20  1  0
  7 11  4  0
  7 24  4  0
  8 30  4  0
  9 10  1  0
  9 21  1  0
 10 12  1  0
 10 16  1  0
 11 17  4  0
 12 14  1  0
 13 17  4  0
 13 34  4  0
 15 16  1  0
 15 33  1  0
 18 27  1  0
 19 26  4  0
 19 31  4  0
 20 25  4  0
 20 29  4  0
 22 25  4  0
 22 31  4  0
 22 32  4  0
 23 26  4  0
 24 33  4  0
 24 34  4  0
 26 28  4  0
 28 30  4  0
 28 32  4  0
M  END
$$$$

 Created by Python create_sdf_string function

 34 71  0  0  0  0  0  0  0  0999 V2000
    7.3419   -8.9631   15.8345 C   0  0  0  0  0  0  0  0  0  0  0  0
   11.4137   -3.3154   21.7446 C   0  0  0  0  0  0  0  0  0  0  0  0
    9.7428   -7.1827   18.8769 C   0  0  0  0  0  0  0  0  0  0  0  0
    1.7112  -10.0794   18.3134 F   0  0  0  0  0  0  0  0  0  0  0  0
   -0.0782  -11.8489   18.2546 N   0  0  0  0  0  0  0  0  0  0  0  0
    7.0901   -7.1372   16.6054 N   0  0  0  0  0  0  0  0  0  0  0  0
   -0.3550  -11.7924   16.7002 C   0  0  0  0  0  0  0  0  0  0  0  0
   11.3268   -4.5255   22.0886 C   0  0  0  0  0  0  0  0  0  0  0  0
    4.3340   -8.4519   15.7503 C   0  0  0  0  0  0  0  0  0  0  0  0
   -1.1099  -12.1605   16.1855 N   0  0  0  0  0  0  0  0  0  0  0  0
    5.1789   -8.0471   16.9544 C   0  0  0  0  0  0  0  0  0  0  0  0
   -0.4048  -11.0409   14.6198 N   0  0  0  0  0  0  0  0  0  0  0  0
    6.2584   -7.7251   17.1285 C   0  0  0  0  0  0  0  0  0  0  0  0
    1.6625   -9.2415   16.4515 N   0  0  0  0  0  0  0  0  0  0  0  0
    2.4559   -8.5731   15.3993 C   0  0  0  0  0  0  0  0  0  0  0  0
   -1.2489  -11.8095   14.9631 C   0  0  0  0  0  0  0  0  0  0  0  0
   10.6036   -3.4189   18.2947 C   0  0  0  0  0  0  0  0  0  0  0  0
    8.3196   -7.1500   16.9270 C   0  0  0  0  0  0  0  0  0  0  0  0
    6.4984   -9.6887   15.2065 C   0  0  0  0  0  0  0  0  0  0  0  0
    9.6838   -5.0636   17.7240 C   0  0  0  0  0  0  0  0  0  0  0  0
   11.2222   -3.2094   20.5564 N   0  0  0  0  0  0  0  0  0  0  0  0
    0.7419  -10.6958   16.4883 C   0  0  0  0  0  0  0  0  0  0  0  0
    8.8116   -5.7658   16.7176 N   0  0  0  0  0  0  0  0  0  0  0  0
   10.8034   -3.8013   19.4708 N   0  0  0  0  0  0  0  0  0  0  0  0
    0.8744  -11.0497   19.0116 C   0  0  0  0  0  0  0  0  0  0  0  0
   10.7262   -5.0312   19.4805 C   0  0  0  0  0  0  0  0  0  0  0  0
    9.2377   -7.1758   17.8295 C   0  0  0  0  0  0  0  0  0  0  0  0
   10.9872   -5.2446   20.7917 C   0  0  0  0  0  0  0  0  0  0  0  0
   10.3305   -3.7559   17.3313 C   0  0  0  0  0  0  0  0  0  0  0  0
   10.6538   -5.4762   18.6404 C   0  0  0  0  0  0  0  0  0  0  0  0
    0.0175  -10.3040   15.2094 C   0  0  0  0  0  0  0  0  0  0  0  0
    5.2075   -9.3243   14.3962 He  0  0  0  0  0  0  0  0  0  0  0  0
    1.2562  -11.7291   20.1772 He  0  0  0  0  0  0  0  0  0  0  0  0
    1.6706   -9.6378   17.2061 He  0  0  0  0  0  0  0  0  0  0  0  0
  1  2  1  0
  1  6  3  0
  1 19  1  0
  2  6  3  0
  2  8  4  0
  2 15  3  0
  2 21  4  0
  3  4  3  0
  3 11  3  0
  3 20  4  0
  3 21  2  0
  3 23  1  0
  3 30  4  0
  3 31  4  0
  4  6  4  0
  4  9  1  0
  4 18  1  0
  4 25  4  0
  5  7  4  0
  5 25  4  0
  6 13  1  0
  6 18  1  0
  6 23  1  0
  7 10  4  0
  7 16  3  0
  7 21  3  0
  7 27  2  0
  8 24  3  0
  8 28  4  0
  9 11  1  0
  9 15  1  0
  9 22  3  0
  9 28  3  0
 10 12  4  0
 10 15  3  0
 10 16  4  0
 11 12  2  0
 11 22  4  0
 11 27  3  0
 12 14  1  0
 12 15  1  0
 12 16  4  0
 12 27  3  0
 13 17  3  0
 13 19  1  0
 13 22  3  0
 14 29  3  0
 16 17  2  0
 16 26  2  0
 17 29  4  0
 17 30  3  0
 18 23  4  0
 18 27  4  0
 19 23  3  0
 19 24  1  0
 19 28  2  0
 19 29  2  0
 20 21  1  0
 20 23  4  0
 20 29  4  0
 20 30  4  0
 21 24  4  0
 21 31  4  0
 22 23  3  0
 22 31  4  0
 24 26  4  0
 24 28  3  0
 26 28  4  0
 26 30  4  0
 27 29  3  0
 28 30  3  0
M  END
$$$$

 Created by Python create_sdf_string function

 34 39  0  0  0  0  0  0  0  0999 V2000
    7.4259   -8.6862   15.6302 C   0  0  0  0  0  0  0  0  0  0  0  0
   11.4576   -3.2613   21.8409 C   0  0  0  0  0  0  0  0  0  0  0  0
   10.0101   -7.0476   18.8037 C   0  0  0  0  0  0  0  0  0  0  0  0
    1.6679  -10.2771   18.3418 N   0  0  0  0  0  0  0  0  0  0  0  0
    0.0250  -11.8675   18.2669 N   0  0  0  0  0  0  0  0  0  0  0  0
    7.2090   -7.5416   16.4261 N   0  0  0  0  0  0  0  0  0  0  0  0
   -0.2232  -11.5755   16.9545 C   0  0  0  0  0  0  0  0  0  0  0  0
   11.3471   -4.5974   22.0773 C   0  0  0  0  0  0  0  0  0  0  0  0
    5.1293   -9.1769   14.7964 N   0  0  0  0  0  0  0  0  0  0  0  0
    4.3155   -8.3989   15.6791 C   0  0  0  0  0  0  0  0  0  0  0  0
   -1.1393  -12.2871   16.2447 N   0  0  0  0  0  0  0  0  0  0  0  0
    4.8750   -8.0535   16.9767 C   0  0  0  0  0  0  0  0  0  0  0  0
   -0.6878  -11.0063   14.3688 N   0  0  0  0  0  0  0  0  0  0  0  0
    6.0250   -7.5152   17.1934 C   0  0  0  0  0  0  0  0  0  0  0  0
    2.0209   -8.7607   16.6590 N   0  0  0  0  0  0  0  0  0  0  0  0
    2.8818   -8.6723   15.5072 C   0  0  0  0  0  0  0  0  0  0  0  0
   -1.3188  -12.0016   14.9872 C   0  0  0  0  0  0  0  0  0  0  0  0
    1.1472  -11.5253   20.2658 N   0  0  0  0  0  0  0  0  0  0  0  0
   10.7972   -3.0698   18.2806 C   0  0  0  0  0  0  0  0  0  0  0  0
    8.3468   -7.0003   17.0221 C   0  0  0  0  0  0  0  0  0  0  0  0
    6.3764   -9.6465   15.2545 C   0  0  0  0  0  0  0  0  0  0  0  0
    9.7352   -5.0797   17.5806 C   0  0  0  0  0  0  0  0  0  0  0  0
   11.3063   -2.7715   20.6149 N   0  0  0  0  0  0  0  0  0  0  0  0
    0.4668  -10.5998   16.3225 C   0  0  0  0  0  0  0  0  0  0  0  0
    8.8009   -5.7662   16.7623 N   0  0  0  0  0  0  0  0  0  0  0  0
   10.9467   -3.5697   19.5653 C   0  0  0  0  0  0  0  0  0  0  0  0
    0.9456  -11.2354   18.9436 C   0  0  0  0  0  0  0  0  0  0  0  0
   10.6862   -4.9264   19.6889 C   0  0  0  0  0  0  0  0  0  0  0  0
    9.0990   -7.6635   17.9725 C   0  0  0  0  0  0  0  0  0  0  0  0
   10.9803   -5.4148   21.0351 C   0  0  0  0  0  0  0  0  0  0  0  0
   10.1505   -3.8001   17.3133 C   0  0  0  0  0  0  0  0  0  0  0  0
   10.1544   -5.6417   18.7003 C   0  0  0  0  0  0  0  0  0  0  0  0
    1.4388   -9.8825   17.0930 C   0  0  0  0  0  0  0  0  0  0  0  0
    0.2108  -10.3376   14.9496 C   0  0  0  0  0  0  0  0  0  0  0  0
  1  6  1  0
  1 21  1  0
  2  8  4  0
  2 23  4  0
  3 29  4  0
  3 32  4  0
  4 27  4  0
  4 33  4  0
  5  7  4  0
  5 27  4  0
  6 14  1  0
  6 20  1  0
  7 11  4  0
  7 24  4  0
  8 30  4  0
  9 10  1  0
  9 21  1  0
 10 12  1  0
 10 16  1  0
 11 17  4  0
 12 14  1  0
 13 17  4  0
 13 34  4  0
 15 16  1  0
 15 33  1  0
 18 27  1  0
 19 26  4  0
 19 31  4  0
 20 25  4  0
 20 29  4  0
 22 25  4  0
 22 31  4  0
 22 32  4  0
 23 26  4  0
 24 33  4  0
 24 34  4  0
 26 28  4  0
 28 30  4  0
 28 32  4  0
M  END
$$$$

 Created by Python create_sdf_string function

 34 56  0  0  0  0  0  0  0  0999 V2000
   11.3233   -3.4659   21.8989 C   0  0  0  0  0  0  0  0  0  0  0  0
   10.0072   -6.8979   18.9030 C   0  0  0  0  0  0  0  0  0  0  0  0
    1.7806  -10.4427   18.3950 N   0  0  0  0  0  0  0  0  0  0  0  0
   -0.0408  -11.6559   18.2633 N   0  0  0  0  0  0  0  0  0  0  0  0
   -0.0700  -11.4728   16.9496 C   0  0  0  0  0  0  0  0  0  0  0  0
   11.1944   -4.5668   22.3717 C   0  0  0  0  0  0  0  0  0  0  0  0
    5.3190   -9.0287   14.3304 N   0  0  0  0  0  0  0  0  0  0  0  0
    3.6347   -8.7588   16.0360 C   0  0  0  0  0  0  0  0  0  0  0  0
   -1.1790  -12.1968   16.3321 N   0  0  0  0  0  0  0  0  0  0  0  0
   -0.8519  -10.9203   14.3450 N   0  0  0  0  0  0  0  0  0  0  0  0
    1.7733   -8.6773   16.7139 N   0  0  0  0  0  0  0  0  0  0  0  0
    2.7086   -8.6584   14.8817 C   0  0  0  0  0  0  0  0  0  0  0  0
    0.7147  -11.3603   20.7472 N   0  0  0  0  0  0  0  0  0  0  0  0
   10.5467   -2.9575   18.3098 C   0  0  0  0  0  0  0  0  0  0  0  0
    8.2972   -7.1162   16.9298 C   0  0  0  0  0  0  0  0  0  0  0  0
    6.4650   -9.4406   15.0746 C   0  0  0  0  0  0  0  0  0  0  0  0
    9.7188   -5.2605   17.3664 C   0  0  0  0  0  0  0  0  0  0  0  0
   11.3682   -2.8829   20.7384 N   0  0  0  0  0  0  0  0  0  0  0  0
    0.4305  -10.7396   16.2455 C   0  0  0  0  0  0  0  0  0  0  0  0
    8.7427   -5.7331   16.7871 N   0  0  0  0  0  0  0  0  0  0  0  0
   10.6331   -3.7457   19.6764 C   0  0  0  0  0  0  0  0  0  0  0  0
    1.2608  -11.1274   18.9009 C   0  0  0  0  0  0  0  0  0  0  0  0
   10.8393   -4.6469   19.6881 C   0  0  0  0  0  0  0  0  0  0  0  0
   10.7339   -5.4845   21.7332 C   0  0  0  0  0  0  0  0  0  0  0  0
   10.2815   -3.9444   17.5768 C   0  0  0  0  0  0  0  0  0  0  0  0
   10.3479   -5.3849   18.6381 C   0  0  0  0  0  0  0  0  0  0  0  0
    1.2564  -10.0895   16.7665 C   0  0  0  0  0  0  0  0  0  0  0  0
    0.0229  -10.4362   14.6781 C   0  0  0  0  0  0  0  0  0  0  0  0
    7.2897   -8.0375   15.3094 He  0  0  0  0  0  0  0  0  0  0  0  0
    7.2729   -7.2788   15.9655 He  0  0  0  0  0  0  0  0  0  0  0  0
    4.6158   -7.7411   17.0061 He  0  0  0  0  0  0  0  0  0  0  0  0
    5.5464   -7.3482   17.0608 He  0  0  0  0  0  0  0  0  0  0  0  0
   -0.9461  -11.7740   15.2677 He  0  0  0  0  0  0  0  0  0  0  0  0
    8.6785   -7.5172   18.0392 He  0  0  0  0  0  0  0  0  0  0  0  0
  1 18  4  0
  1 26  4  0
  2  6  4  0
  2 16  3  0
  2 21  4  0
  2 25  4  0
  3 16  1  0
  3 28  1  0
  4  5  4  0
  4 19  1  0
  4 22  4  0
  4 28  4  0
  5  9  4  0
  5 12  1  0
  5 16  1  0
  5 19  4  0
  5 23  1  0
  5 26  3  0
  7  8  1  0
  7 16  1  0
  7 21  2  0
  8 11  2  0
  8 25  4  0
  8 27  4  0
  9 27  2  0
 10 11  3  0
 10 22  2  0
 10 24  2  0
 10 28  4  0
 11 12  1  0
 11 16  2  0
 11 27  1  0
 11 28  3  0
 12 21  2  0
 13 16  4  0
 13 20  1  0
 13 22  1  0
 13 23  2  0
 14 16  2  0
 14 21  4  0
 14 25  4  0
 15 25  2  0
 16 18  3  0
 16 22  3  0
 16 26  4  0
 17 20  4  0
 17 23  3  0
 17 26  2  0
 17 27  2  0
 18 21  4  0
 19 27  4  0
 19 28  4  0
 21 23  4  0
 21 27  4  0
 23 24  4  0
 26 27  2  0
M  END
$$$$

 Created by Python create_sdf_string function

 34 39  0  0  0  0  0  0  0  0999 V2000
    7.3622   -8.2030   15.2876 C   0  0  0  0  0  0  0  0  0  0  0  0
   11.3870   -3.2910   22.0371 C   0  0  0  0  0  0  0  0  0  0  0  0
    9.7892   -7.0514   18.8889 C   0  0  0  0  0  0  0  0  0  0  0  0
    1.6631  -10.2411   18.2988 N   0  0  0  0  0  0  0  0  0  0  0  0
   -0.0070  -11.7741   18.2492 N   0  0  0  0  0  0  0  0  0  0  0  0
    7.0986   -7.3289   16.3681 N   0  0  0  0  0  0  0  0  0  0  0  0
   -0.2428  -11.5448   16.9284 C   0  0  0  0  0  0  0  0  0  0  0  0
   11.1836   -4.6476   22.2436 C   0  0  0  0  0  0  0  0  0  0  0  0
    5.0831   -8.9548   14.7380 N   0  0  0  0  0  0  0  0  0  0  0  0
    4.2085   -8.6518   15.7133 C   0  0  0  0  0  0  0  0  0  0  0  0
   -1.1948  -12.2553   16.2539 N   0  0  0  0  0  0  0  0  0  0  0  0
    4.7154   -7.8590   16.8521 C   0  0  0  0  0  0  0  0  0  0  0  0
   -0.7728  -11.0623   14.3101 N   0  0  0  0  0  0  0  0  0  0  0  0
    5.8364   -7.3177   16.9812 C   0  0  0  0  0  0  0  0  0  0  0  0
    1.9105   -8.7549   16.5565 N   0  0  0  0  0  0  0  0  0  0  0  0
    2.8179   -8.7287   15.3912 C   0  0  0  0  0  0  0  0  0  0  0  0
   -1.4309  -11.9835   14.9972 C   0  0  0  0  0  0  0  0  0  0  0  0
    1.0302  -11.3511   20.3886 N   0  0  0  0  0  0  0  0  0  0  0  0
   10.7520   -3.0812   18.4124 C   0  0  0  0  0  0  0  0  0  0  0  0
    8.2681   -6.8740   17.0045 C   0  0  0  0  0  0  0  0  0  0  0  0
    6.3963   -9.3003   15.1200 C   0  0  0  0  0  0  0  0  0  0  0  0
    9.7155   -5.0683   17.6567 C   0  0  0  0  0  0  0  0  0  0  0  0
   11.2536   -2.7706   20.7974 N   0  0  0  0  0  0  0  0  0  0  0  0
    0.4449  -10.5970   16.2490 C   0  0  0  0  0  0  0  0  0  0  0  0
    8.8463   -5.7191   16.7628 N   0  0  0  0  0  0  0  0  0  0  0  0
   10.8856   -3.5707   19.7076 C   0  0  0  0  0  0  0  0  0  0  0  0
    0.8903  -11.1244   18.9620 C   0  0  0  0  0  0  0  0  0  0  0  0
   10.5869   -4.9207   19.8422 C   0  0  0  0  0  0  0  0  0  0  0  0
    8.8809   -7.6124   17.9937 C   0  0  0  0  0  0  0  0  0  0  0  0
   10.8257   -5.4190   21.1641 C   0  0  0  0  0  0  0  0  0  0  0  0
   10.1714   -3.7934   17.4326 C   0  0  0  0  0  0  0  0  0  0  0  0
   10.0775   -5.6408   18.8056 C   0  0  0  0  0  0  0  0  0  0  0  0
    1.3909   -9.9077   17.0333 C   0  0  0  0  0  0  0  0  0  0  0  0
    0.1541  -10.3444   14.8880 C   0  0  0  0  0  0  0  0  0  0  0  0
  1  6  1  0
  1 21  1  0
  2  8  4  0
  2 23  4  0
  3 29  4  0
  3 32  4  0
  4 27  4  0
  4 33  4  0
  5  7  4  0
  5 27  4  0
  6 14  1  0
  6 20  1  0
  7 11  4  0
  7 24  4  0
  8 30  4  0
  9 10  1  0
  9 21  1  0
 10 12  1  0
 10 16  1  0
 11 17  4  0
 12 14  1  0
 13 17  4  0
 13 34  4  0
 15 16  1  0
 15 33  1  0
 18 27  1  0
 19 26  4  0
 19 31  4  0
 20 25  4  0
 20 29  4  0
 22 25  4  0
 22 31  4  0
 22 32  4  0
 23 26  4  0
 24 33  4  0
 24 34  4  0
 26 28  4  0
 28 30  4  0
 28 32  4  0
M  END
$$$$

 Created by Python create_sdf_string function

 34 58  0  0  0  0  0  0  0  0999 V2000
    7.2598   -7.8143   15.1374 C   0  0  0  0  0  0  0  0  0  0  0  0
   11.7156   -3.2075   22.0625 C   0  0  0  0  0  0  0  0  0  0  0  0
    1.7182  -10.2326   18.1542 N   0  0  0  0  0  0  0  0  0  0  0  0
    0.0819  -11.8361   18.1835 N   0  0  0  0  0  0  0  0  0  0  0  0
    7.3703   -7.2683   16.3168 N   0  0  0  0  0  0  0  0  0  0  0  0
   -0.1031  -11.9417   16.9355 C   0  0  0  0  0  0  0  0  0  0  0  0
   11.1718   -4.8519   22.0618 C   0  0  0  0  0  0  0  0  0  0  0  0
    4.9173   -8.7295   14.9490 N   0  0  0  0  0  0  0  0  0  0  0  0
   -1.2764  -12.1851   16.2955 N   0  0  0  0  0  0  0  0  0  0  0  0
   -0.7503  -11.0190   14.2865 N   0  0  0  0  0  0  0  0  0  0  0  0
    5.7947   -7.7980   16.5915 O   0  0  0  0  0  0  0  0  0  0  0  0
    2.3067   -8.2920   16.5473 N   0  0  0  0  0  0  0  0  0  0  0  0
   -1.2830  -11.9061   14.7042 C   0  0  0  0  0  0  0  0  0  0  0  0
    0.8516  -11.5773   20.3459 N   0  0  0  0  0  0  0  0  0  0  0  0
   10.7700   -3.1739   18.4539 C   0  0  0  0  0  0  0  0  0  0  0  0
    8.3090   -6.9293   16.8256 C   0  0  0  0  0  0  0  0  0  0  0  0
    6.3165   -9.3925   15.3197 C   0  0  0  0  0  0  0  0  0  0  0  0
    9.6080   -4.9837   17.4030 C   0  0  0  0  0  0  0  0  0  0  0  0
   11.2659   -2.6376   21.1281 F   0  0  0  0  0  0  0  0  0  0  0  0
    0.2966  -10.8745   16.2641 C   0  0  0  0  0  0  0  0  0  0  0  0
    8.8288   -5.4305   16.8856 N   0  0  0  0  0  0  0  0  0  0  0  0
   10.9910   -3.5493   19.5279 C   0  0  0  0  0  0  0  0  0  0  0  0
    0.8866  -11.0567   18.8226 C   0  0  0  0  0  0  0  0  0  0  0  0
   10.4110   -5.0144   19.9389 C   0  0  0  0  0  0  0  0  0  0  0  0
   10.8016   -5.3511   21.3094 C   0  0  0  0  0  0  0  0  0  0  0  0
   10.2661   -3.7081   17.3974 Se  0  0  0  0  0  0  0  0  0  0  0  0
   10.2835   -5.9161   18.7989 C   0  0  0  0  0  0  0  0  0  0  0  0
    1.9059  -10.6274   17.0558 F   0  0  0  0  0  0  0  0  0  0  0  0
    0.0275  -10.3391   14.8396 C   0  0  0  0  0  0  0  0  0  0  0  0
    9.7856   -7.1815   19.0658 He  0  0  0  0  0  0  0  0  0  0  0  0
    4.4910   -8.7387   15.4060 He  0  0  0  0  0  0  0  0  0  0  0  0
    4.6415   -7.1870   16.8424 He  0  0  0  0  0  0  0  0  0  0  0  0
    2.3530   -8.7214   15.0464 He  0  0  0  0  0  0  0  0  0  0  0  0
    8.8470   -7.5562   18.0515 He  0  0  0  0  0  0  0  0  0  0  0  0
  1  4  4  0
  1  5  3  0
  1  7  4  0
  1 11  2  0
  1 12  1  0
  1 17  1  0
  2  5  4  0
  2  7  4  0
  2 19  3  0
  3  9  3  0
  3 22  1  0
  3 23  4  0
  3 24  2  0
  3 28  4  0
  4  6  4  0
  4 23  4  0
  5 11  1  0
  5 16  1  0
  5 19  4  0
  6  9  4  0
  6 20  4  0
  6 24  4  0
  7 27  2  0
  8 16  2  0
  8 17  1  0
  8 20  1  0
  8 24  1  0
  9 11  1  0
  9 12  1  0
  9 13  4  0
  9 16  1  0
  9 21  3  0
  9 28  2  0
 10 13  4  0
 10 28  4  0
 10 29  4  0
 11 18  3  0
 11 20  4  0
 12 28  1  0
 14 23  1  0
 14 24  1  0
 14 26  4  0
 15 19  4  0
 15 22  4  0
 15 26  4  0
 16 21  4  0
 18 21  4  0
 18 23  4  0
 18 26  4  0
 18 27  4  0
 19 22  4  0
 19 25  3  0
 19 28  3  0
 20 28  4  0
 20 29  3  0
 22 24  4  0
 23 25  4  0
 24 27  4  0
M  END
$$$$

 Created by Python create_sdf_string function

 34 39  0  0  0  0  0  0  0  0999 V2000
    7.2700   -8.0408   15.2196 C   0  0  0  0  0  0  0  0  0  0  0  0
   11.5250   -3.3597   22.0523 C   0  0  0  0  0  0  0  0  0  0  0  0
    9.7736   -7.0140   18.9225 C   0  0  0  0  0  0  0  0  0  0  0  0
    1.6803  -10.3550   18.2571 N   0  0  0  0  0  0  0  0  0  0  0  0
    0.0302  -11.8725   18.1501 N   0  0  0  0  0  0  0  0  0  0  0  0
    7.1319   -7.2814   16.3934 N   0  0  0  0  0  0  0  0  0  0  0  0
   -0.2103  -11.5889   16.8541 C   0  0  0  0  0  0  0  0  0  0  0  0
   11.2662   -4.6989   22.2595 C   0  0  0  0  0  0  0  0  0  0  0  0
    5.0734   -9.0552   14.7567 N   0  0  0  0  0  0  0  0  0  0  0  0
    4.2318   -8.3068   15.5011 C   0  0  0  0  0  0  0  0  0  0  0  0
   -1.1542  -12.3171   16.1444 N   0  0  0  0  0  0  0  0  0  0  0  0
    4.7417   -7.5527   16.6330 C   0  0  0  0  0  0  0  0  0  0  0  0
   -0.7377  -11.0293   14.2436 N   0  0  0  0  0  0  0  0  0  0  0  0
    5.8991   -7.4330   17.0929 C   0  0  0  0  0  0  0  0  0  0  0  0
    2.1331   -8.8270   16.5858 N   0  0  0  0  0  0  0  0  0  0  0  0
    2.8112   -8.6777   15.3764 C   0  0  0  0  0  0  0  0  0  0  0  0
   -1.4173  -11.9634   14.8978 C   0  0  0  0  0  0  0  0  0  0  0  0
    1.0095  -11.4424   20.2198 N   0  0  0  0  0  0  0  0  0  0  0  0
   10.7983   -3.0616   18.4615 C   0  0  0  0  0  0  0  0  0  0  0  0
    8.2860   -6.8488   17.0064 C   0  0  0  0  0  0  0  0  0  0  0  0
    6.3731   -9.2923   15.1294 C   0  0  0  0  0  0  0  0  0  0  0  0
    9.7060   -5.0388   17.6993 C   0  0  0  0  0  0  0  0  0  0  0  0
   11.3862   -2.8342   20.7819 N   0  0  0  0  0  0  0  0  0  0  0  0
    0.4864  -10.6217   16.2171 C   0  0  0  0  0  0  0  0  0  0  0  0
    8.8193   -5.6774   16.7945 N   0  0  0  0  0  0  0  0  0  0  0  0
   10.9573   -3.5713   19.7375 C   0  0  0  0  0  0  0  0  0  0  0  0
    0.9122  -11.2252   18.8447 C   0  0  0  0  0  0  0  0  0  0  0  0
   10.5963   -4.9265   19.8431 C   0  0  0  0  0  0  0  0  0  0  0  0
    8.8914   -7.5994   18.0145 C   0  0  0  0  0  0  0  0  0  0  0  0
   10.8291   -5.4533   21.1814 C   0  0  0  0  0  0  0  0  0  0  0  0
   10.1884   -3.7973   17.4747 C   0  0  0  0  0  0  0  0  0  0  0  0
   10.0375   -5.6340   18.8367 C   0  0  0  0  0  0  0  0  0  0  0  0
    1.4262   -9.9481   17.0273 C   0  0  0  0  0  0  0  0  0  0  0  0
    0.2342  -10.3708   14.8599 C   0  0  0  0  0  0  0  0  0  0  0  0
  1  6  1  0
  1 21  1  0
  2  8  4  0
  2 23  4  0
  3 29  4  0
  3 32  4  0
  4 27  4  0
  4 33  4  0
  5  7  4  0
  5 27  4  0
  6 14  1  0
  6 20  1  0
  7 11  4  0
  7 24  4  0
  8 30  4  0
  9 10  1  0
  9 21  1  0
 10 12  1  0
 10 16  1  0
 11 17  4  0
 12 14  1  0
 13 17  4  0
 13 34  4  0
 15 16  1  0
 15 33  1  0
 18 27  1  0
 19 26  4  0
 19 31  4  0
 20 25  4  0
 20 29  4  0
 22 25  4  0
 22 31  4  0
 22 32  4  0
 23 26  4  0
 24 33  4  0
 24 34  4  0
 26 28  4  0
 28 30  4  0
 28 32  4  0
M  END
$$$$

 Created by Python create_sdf_string function

 34 59  0  0  0  0  0  0  0  0999 V2000
    7.2249   -7.7142   15.2327 F   0  0  0  0  0  0  0  0  0  0  0  0
   11.5627   -3.4076   22.2259 C   0  0  0  0  0  0  0  0  0  0  0  0
    9.4713   -6.6506   19.2779 C   0  0  0  0  0  0  0  0  0  0  0  0
    0.1660  -11.7868   18.2435 N   0  0  0  0  0  0  0  0  0  0  0  0
   -0.2630  -11.6311   16.9062 C   0  0  0  0  0  0  0  0  0  0  0  0
   11.2101   -4.7684   22.1991 C   0  0  0  0  0  0  0  0  0  0  0  0
    4.3636   -8.4769   15.3024 C   0  0  0  0  0  0  0  0  0  0  0  0
   -1.0170  -12.3586   16.2696 N   0  0  0  0  0  0  0  0  0  0  0  0
    4.9439   -7.6100   17.1815 C   0  0  0  0  0  0  0  0  0  0  0  0
   -0.6258  -11.0224   14.1660 N   0  0  0  0  0  0  0  0  0  0  0  0
    5.8109   -7.7022   17.0022 C   0  0  0  0  0  0  0  0  0  0  0  0
    1.9807   -8.7195   16.1375 N   0  0  0  0  0  0  0  0  0  0  0  0
    3.0469   -8.6666   15.0325 C   0  0  0  0  0  0  0  0  0  0  0  0
   -1.4163  -12.0442   14.8409 C   0  0  0  0  0  0  0  0  0  0  0  0
    1.1562  -11.7269   20.2575 N   0  0  0  0  0  0  0  0  0  0  0  0
   10.7137   -3.0011   18.5096 C   0  0  0  0  0  0  0  0  0  0  0  0
    8.4020   -6.8888   16.9360 C   0  0  0  0  0  0  0  0  0  0  0  0
    6.5234   -9.2300   14.9856 C   0  0  0  0  0  0  0  0  0  0  0  0
    9.6605   -4.9842   17.7861 C   0  0  0  0  0  0  0  0  0  0  0  0
   11.3445   -2.8273   20.8561 N   0  0  0  0  0  0  0  0  0  0  0  0
    0.4251  -10.5632   16.1907 C   0  0  0  0  0  0  0  0  0  0  0  0
    8.7493   -5.7278   16.5974 N   0  0  0  0  0  0  0  0  0  0  0  0
    0.7733  -11.2979   18.5873 C   0  0  0  0  0  0  0  0  0  0  0  0
   10.2623   -5.0776   19.7420 C   0  0  0  0  0  0  0  0  0  0  0  0
    8.9176   -8.0479   18.0783 C   0  0  0  0  0  0  0  0  0  0  0  0
   10.7109   -5.2603   21.3015 C   0  0  0  0  0  0  0  0  0  0  0  0
   10.1789   -3.8388   17.4547 C   0  0  0  0  0  0  0  0  0  0  0  0
    9.9918   -6.0727   18.6893 C   0  0  0  0  0  0  0  0  0  0  0  0
    2.0222   -9.9365   16.7547 C   0  0  0  0  0  0  0  0  0  0  0  0
    0.3347  -10.3798   14.9889 C   0  0  0  0  0  0  0  0  0  0  0  0
    1.6615  -10.3116   18.4066 He  0  0  0  0  0  0  0  0  0  0  0  0
    6.8378   -7.3718   16.2037 He  0  0  0  0  0  0  0  0  0  0  0  0
    5.0596   -8.9252   14.9802 He  0  0  0  0  0  0  0  0  0  0  0  0
   10.7899   -3.5734   19.7878 He  0  0  0  0  0  0  0  0  0  0  0  0
  1 18  1  0
  1 25  2  0
  1 26  1  0
  1 27  4  0
  2  6  4  0
  2 12  4  0
  2 18  1  0
  2 20  4  0
  2 26  2  0
  3  4  3  0
  3  6  4  0
  3 25  3  0
  4  5  4  0
  4  7  4  0
  4 23  1  0
  5  8  4  0
  5 21  4  0
  6 30  4  0
  7  8  4  0
  7  9  3  0
  7 13  1  0
  8  9  1  0
  8 14  4  0
  8 21  2  0
  9 11  1  0
  9 17  1  0
  9 18  1  0
  9 20  3  0
 10 13  3  0
 10 14  4  0
 10 30  4  0
 11 19  2  0
 11 22  1  0
 11 26  2  0
 12 17  1  0
 12 26  4  0
 13 20  3  0
 13 29  2  0
 14 26  3  0
 15 20  3  0
 15 23  1  0
 15 24  4  0
 15 25  3  0
 15 30  1  0
 16 27  4  0
 17 22  2  0
 17 26  4  0
 19 22  4  0
 19 27  4  0
 19 28  4  0
 19 30  3  0
 21 29  4  0
 21 30  4  0
 22 29  4  0
 24 26  4  0
 24 28  4  0
 25 30  3  0
 26 28  1  0
 28 30  1  0
M  END
$$$$

 Created by Python create_sdf_string function

 34 39  0  0  0  0  0  0  0  0999 V2000
    7.2181   -7.9264   15.1979 C   0  0  0  0  0  0  0  0  0  0  0  0
   11.5027   -3.3889   22.0704 C   0  0  0  0  0  0  0  0  0  0  0  0
    9.6499   -7.0740   18.9651 C   0  0  0  0  0  0  0  0  0  0  0  0
    1.7576  -10.2750   18.1806 N   0  0  0  0  0  0  0  0  0  0  0  0
    0.0743  -11.8498   18.1426 N   0  0  0  0  0  0  0  0  0  0  0  0
    7.0488   -7.3079   16.4650 N   0  0  0  0  0  0  0  0  0  0  0  0
   -0.1612  -11.5957   16.8361 C   0  0  0  0  0  0  0  0  0  0  0  0
   11.2029   -4.7142   22.2664 C   0  0  0  0  0  0  0  0  0  0  0  0
    5.1636   -9.1140   14.7743 N   0  0  0  0  0  0  0  0  0  0  0  0
    4.3019   -8.1929   15.4438 C   0  0  0  0  0  0  0  0  0  0  0  0
   -1.1209  -12.2968   16.1589 N   0  0  0  0  0  0  0  0  0  0  0  0
    4.6889   -7.8096   16.8419 C   0  0  0  0  0  0  0  0  0  0  0  0
   -0.6634  -11.0549   14.1923 N   0  0  0  0  0  0  0  0  0  0  0  0
    5.9281   -7.5775   17.2942 C   0  0  0  0  0  0  0  0  0  0  0  0
    2.1291   -8.8019   16.3876 N   0  0  0  0  0  0  0  0  0  0  0  0
    2.9559   -8.6223   15.2813 C   0  0  0  0  0  0  0  0  0  0  0  0
   -1.3297  -12.0176   14.8686 C   0  0  0  0  0  0  0  0  0  0  0  0
    1.2446  -11.5050   20.1515 N   0  0  0  0  0  0  0  0  0  0  0  0
   10.7259   -3.0817   18.4914 C   0  0  0  0  0  0  0  0  0  0  0  0
    8.2403   -6.8958   17.0361 C   0  0  0  0  0  0  0  0  0  0  0  0
    6.4723   -9.2370   15.0174 C   0  0  0  0  0  0  0  0  0  0  0  0
    9.6532   -5.0722   17.7194 C   0  0  0  0  0  0  0  0  0  0  0  0
   11.3404   -2.8394   20.8364 N   0  0  0  0  0  0  0  0  0  0  0  0
    0.5385  -10.6300   16.1742 C   0  0  0  0  0  0  0  0  0  0  0  0
    8.8145   -5.7609   16.7524 N   0  0  0  0  0  0  0  0  0  0  0  0
   10.8671   -3.6074   19.7738 C   0  0  0  0  0  0  0  0  0  0  0  0
    1.0135  -11.2225   18.8238 C   0  0  0  0  0  0  0  0  0  0  0  0
   10.4880   -4.9457   19.9065 C   0  0  0  0  0  0  0  0  0  0  0  0
    8.8318   -7.6836   18.0608 C   0  0  0  0  0  0  0  0  0  0  0  0
   10.7278   -5.4659   21.2227 C   0  0  0  0  0  0  0  0  0  0  0  0
   10.1262   -3.8170   17.4905 C   0  0  0  0  0  0  0  0  0  0  0  0
    9.9292   -5.6644   18.8697 C   0  0  0  0  0  0  0  0  0  0  0  0
    1.4934   -9.9145   16.9045 C   0  0  0  0  0  0  0  0  0  0  0  0
    0.2542  -10.3638   14.7990 C   0  0  0  0  0  0  0  0  0  0  0  0
  1  6  1  0
  1 21  1  0
  2  8  4  0
  2 23  4  0
  3 29  4  0
  3 32  4  0
  4 27  4  0
  4 33  4  0
  5  7  4  0
  5 27  4  0
  6 14  1  0
  6 20  1  0
  7 11  4  0
  7 24  4  0
  8 30  4  0
  9 10  1  0
  9 21  1  0
 10 12  1  0
 10 16  1  0
 11 17  4  0
 12 14  1  0
 13 17  4  0
 13 34  4  0
 15 16  1  0
 15 33  1  0
 18 27  1  0
 19 26  4  0
 19 31  4  0
 20 25  4  0
 20 29  4  0
 22 25  4  0
 22 31  4  0
 22 32  4  0
 23 26  4  0
 24 33  4  0
 24 34  4  0
 26 28  4  0
 28 30  4  0
 28 32  4  0
M  END
$$$$

 Created by Python create_sdf_string function

 34 70  0  0  0  0  0  0  0  0999 V2000
    6.6808   -8.1639   15.2603 O   0  0  0  0  0  0  0  0  0  0  0  0
   11.4672   -3.4272   21.9528 O   0  0  0  0  0  0  0  0  0  0  0  0
    9.7446   -7.3520   18.9081 C   0  0  0  0  0  0  0  0  0  0  0  0
    2.2936  -10.6003   18.4170 N   0  0  0  0  0  0  0  0  0  0  0  0
    0.0125  -11.8319   17.9798 N   0  0  0  0  0  0  0  0  0  0  0  0
    6.8873   -7.5855   16.6580 N   0  0  0  0  0  0  0  0  0  0  0  0
   -0.4186  -11.7585   16.9535 C   0  0  0  0  0  0  0  0  0  0  0  0
   11.3081   -4.6271   22.2999 C   0  0  0  0  0  0  0  0  0  0  0  0
    5.3218   -9.2797   14.8173 N   0  0  0  0  0  0  0  0  0  0  0  0
    4.4873   -8.2980   15.5702 C   0  0  0  0  0  0  0  0  0  0  0  0
   -1.1999  -12.3613   16.1929 N   0  0  0  0  0  0  0  0  0  0  0  0
    5.1401   -7.8224   16.6286 Se  0  0  0  0  0  0  0  0  0  0  0  0
   -0.5893  -11.0451   14.1555 N   0  0  0  0  0  0  0  0  0  0  0  0
    6.0393   -7.5869   17.6304 C   0  0  0  0  0  0  0  0  0  0  0  0
    2.0234   -8.5803   16.2680 N   0  0  0  0  0  0  0  0  0  0  0  0
    3.1733   -8.7715   15.2376 C   0  0  0  0  0  0  0  0  0  0  0  0
   -1.0808  -12.1329   14.7733 C   0  0  0  0  0  0  0  0  0  0  0  0
    1.1185  -11.8856   19.8013 Cl  0  0  0  0  0  0  0  0  0  0  0  0
   10.8152   -2.8434   18.7115 C   0  0  0  0  0  0  0  0  0  0  0  0
    8.2340   -7.0569   16.9867 C   0  0  0  0  0  0  0  0  0  0  0  0
    6.1968   -9.4098   15.5080 C   0  0  0  0  0  0  0  0  0  0  0  0
    9.6276   -4.9888   17.7190 C   0  0  0  0  0  0  0  0  0  0  0  0
   11.2603   -2.7826   20.5922 N   0  0  0  0  0  0  0  0  0  0  0  0
    0.5723  -10.9577   16.3557 C   0  0  0  0  0  0  0  0  0  0  0  0
    8.8777   -5.7450   16.7454 N   0  0  0  0  0  0  0  0  0  0  0  0
   10.9569   -3.7970   19.8250 C   0  0  0  0  0  0  0  0  0  0  0  0
    0.9507  -11.3043   18.8224 C   0  0  0  0  0  0  0  0  0  0  0  0
   10.2880   -4.9380   20.1607 C   0  0  0  0  0  0  0  0  0  0  0  0
   10.2080   -5.6416   21.5938 C   0  0  0  0  0  0  0  0  0  0  0  0
   10.0015   -3.7933   17.6241 C   0  0  0  0  0  0  0  0  0  0  0  0
    9.9671   -6.1030   18.7523 C   0  0  0  0  0  0  0  0  0  0  0  0
    1.3811   -9.9473   17.1311 C   0  0  0  0  0  0  0  0  0  0  0  0
    0.3384  -10.4409   14.5757 C   0  0  0  0  0  0  0  0  0  0  0  0
    8.9998   -7.9343   18.0737 He  0  0  0  0  0  0  0  0  0  0  0  0
  1  6  1  0
  1 21  1  0
  1 28  1  0
  2  8  4  0
  2 23  4  0
  2 26  3  0
  3 31  4  0
  4  5  1  0
  4 13  2  0
  4 16  2  0
  4 27  4  0
  4 32  4  0
  5  7  4  0
  5 21  3  0
  5 27  4  0
  6 14  1  0
  6 20  1  0
  6 27  3  0
  6 30  4  0
  6 33  3  0
  7 11  4  0
  7 14  4  0
  7 19  2  0
  7 26  3  0
  7 32  3  0
  8 27  4  0
  8 29  4  0
  8 33  1  0
  9 10  1  0
  9 21  2  0
  9 27  2  0
 10 12  1  0
 10 14  3  0
 10 16  1  0
 10 22  2  0
 11 17  4  0
 11 32  4  0
 12 24  4  0
 12 26  4  0
 12 28  1  0
 13 16  1  0
 13 18  4  0
 14 16  2  0
 14 23  2  0
 14 25  3  0
 15 16  1  0
 15 23  2  0
 16 21  2  0
 16 23  4  0
 16 30  3  0
 16 32  3  0
 17 24  4  0
 18 27  1  0
 18 31  3  0
 19 21  4  0
 19 26  2  0
 19 30  4  0
 20 25  4  0
 21 28  1  0
 22 25  4  0
 22 30  4  0
 22 31  4  0
 23 31  2  0
 24 31  2  0
 24 33  4  0
 25 31  1  0
 26 28  4  0
 28 29  4  0
 28 31  4  0
 32 33  1  0
M  END
$$$$

 Created by Python create_sdf_string function

 34 39  0  0  0  0  0  0  0  0999 V2000
    7.1459   -8.1389   15.3499 C   0  0  0  0  0  0  0  0  0  0  0  0
   11.4828   -3.4090   22.0810 C   0  0  0  0  0  0  0  0  0  0  0  0
    9.7840   -7.1545   18.9770 C   0  0  0  0  0  0  0  0  0  0  0  0
    1.7871  -10.4253   18.2264 N   0  0  0  0  0  0  0  0  0  0  0  0
    0.0588  -11.9547   18.1162 N   0  0  0  0  0  0  0  0  0  0  0  0
    7.0807   -7.4752   16.5277 N   0  0  0  0  0  0  0  0  0  0  0  0
   -0.1650  -11.6455   16.8094 C   0  0  0  0  0  0  0  0  0  0  0  0
   11.0872   -4.6990   22.3176 C   0  0  0  0  0  0  0  0  0  0  0  0
    5.1615   -9.3039   14.9071 N   0  0  0  0  0  0  0  0  0  0  0  0
    4.3361   -8.2638   15.5302 C   0  0  0  0  0  0  0  0  0  0  0  0
   -1.1328  -12.3452   16.0756 N   0  0  0  0  0  0  0  0  0  0  0  0
    4.7221   -7.7505   16.8155 C   0  0  0  0  0  0  0  0  0  0  0  0
   -0.5340  -11.1483   14.1521 N   0  0  0  0  0  0  0  0  0  0  0  0
    5.9087   -7.6644   17.3463 C   0  0  0  0  0  0  0  0  0  0  0  0
    2.1191   -8.8347   16.4969 N   0  0  0  0  0  0  0  0  0  0  0  0
    2.9856   -8.7021   15.3540 C   0  0  0  0  0  0  0  0  0  0  0  0
   -1.2711  -12.0641   14.7838 C   0  0  0  0  0  0  0  0  0  0  0  0
    1.3125  -11.7747   20.1237 N   0  0  0  0  0  0  0  0  0  0  0  0
   10.6817   -3.1214   18.5157 C   0  0  0  0  0  0  0  0  0  0  0  0
    8.2436   -7.0245   17.1265 C   0  0  0  0  0  0  0  0  0  0  0  0
    6.4479   -9.4408   15.2687 C   0  0  0  0  0  0  0  0  0  0  0  0
    9.6089   -5.1535   17.7763 C   0  0  0  0  0  0  0  0  0  0  0  0
   11.3402   -2.8945   20.8191 N   0  0  0  0  0  0  0  0  0  0  0  0
    0.5564  -10.6912   16.1760 C   0  0  0  0  0  0  0  0  0  0  0  0
    8.7367   -5.8214   16.8883 N   0  0  0  0  0  0  0  0  0  0  0  0
   10.8395   -3.6634   19.7949 C   0  0  0  0  0  0  0  0  0  0  0  0
    1.0352  -11.3743   18.7773 C   0  0  0  0  0  0  0  0  0  0  0  0
   10.4744   -5.0051   19.9333 C   0  0  0  0  0  0  0  0  0  0  0  0
    8.9441   -7.7942   18.0643 C   0  0  0  0  0  0  0  0  0  0  0  0
   10.6589   -5.5025   21.2547 C   0  0  0  0  0  0  0  0  0  0  0  0
   10.0609   -3.8812   17.5265 C   0  0  0  0  0  0  0  0  0  0  0  0
    9.9850   -5.7489   18.9341 C   0  0  0  0  0  0  0  0  0  0  0  0
    1.5116  -10.0111   16.9735 C   0  0  0  0  0  0  0  0  0  0  0  0
    0.3394  -10.4206   14.8285 C   0  0  0  0  0  0  0  0  0  0  0  0
  1  6  1  0
  1 21  1  0
  2  8  4  0
  2 23  4  0
  3 29  4  0
  3 32  4  0
  4 27  4  0
  4 33  4  0
  5  7  4  0
  5 27  4  0
  6 14  1  0
  6 20  1  0
  7 11  4  0
  7 24  4  0
  8 30  4  0
  9 10  1  0
  9 21  1  0
 10 12  1  0
 10 16  1  0
 11 17  4  0
 12 14  1  0
 13 17  4  0
 13 34  4  0
 15 16  1  0
 15 33  1  0
 18 27  1  0
 19 26  4  0
 19 31  4  0
 20 25  4  0
 20 29  4  0
 22 25  4  0
 22 31  4  0
 22 32  4  0
 23 26  4  0
 24 33  4  0
 24 34  4  0
 26 28  4  0
 28 30  4  0
 28 32  4  0
M  END
$$$$

 Created by Python create_sdf_string function

 34 61  0  0  0  0  0  0  0  0999 V2000
    6.9880   -7.9156   15.6905 C   0  0  0  0  0  0  0  0  0  0  0  0
   11.2153   -3.2867   21.9953 C   0  0  0  0  0  0  0  0  0  0  0  0
    9.6373   -7.4032   18.9011 C   0  0  0  0  0  0  0  0  0  0  0  0
    1.8087  -10.5084   18.2828 N   0  0  0  0  0  0  0  0  0  0  0  0
    0.0027  -12.1617   18.0814 N   0  0  0  0  0  0  0  0  0  0  0  0
   -0.0663  -11.5312   16.6433 C   0  0  0  0  0  0  0  0  0  0  0  0
   11.2083   -4.7345   22.3151 O   0  0  0  0  0  0  0  0  0  0  0  0
    5.1399   -9.1354   15.0167 N   0  0  0  0  0  0  0  0  0  0  0  0
    4.1220   -8.4166   15.5336 C   0  0  0  0  0  0  0  0  0  0  0  0
   -0.9511  -12.3582   16.1029 N   0  0  0  0  0  0  0  0  0  0  0  0
    4.3259   -7.8695   16.6384 C   0  0  0  0  0  0  0  0  0  0  0  0
   -0.5776  -11.2943   14.2553 N   0  0  0  0  0  0  0  0  0  0  0  0
    5.6138   -7.3048   17.7806 C   0  0  0  0  0  0  0  0  0  0  0  0
    1.9438   -8.6873   16.3133 N   0  0  0  0  0  0  0  0  0  0  0  0
    2.8609   -8.6566   15.4941 C   0  0  0  0  0  0  0  0  0  0  0  0
   -1.3272  -12.0388   14.9327 C   0  0  0  0  0  0  0  0  0  0  0  0
    1.3426  -11.9107   20.2635 N   0  0  0  0  0  0  0  0  0  0  0  0
   10.8373   -3.0319   18.4130 C   0  0  0  0  0  0  0  0  0  0  0  0
    8.5625   -6.9028   16.9437 C   0  0  0  0  0  0  0  0  0  0  0  0
    6.5220   -9.3878   15.1233 C   0  0  0  0  0  0  0  0  0  0  0  0
    9.6049   -5.4802   17.8376 C   0  0  0  0  0  0  0  0  0  0  0  0
   11.1864   -2.7018   20.8252 B   0  0  0  0  0  0  0  0  0  0  0  0
    0.4738  -10.9763   16.2214 C   0  0  0  0  0  0  0  0  0  0  0  0
    8.7672   -5.9408   17.1428 N   0  0  0  0  0  0  0  0  0  0  0  0
   10.7327   -3.8377   19.7365 C   0  0  0  0  0  0  0  0  0  0  0  0
    1.1256  -11.3484   18.6790 C   0  0  0  0  0  0  0  0  0  0  0  0
   10.3221   -4.8205   19.9472 C   0  0  0  0  0  0  0  0  0  0  0  0
   10.7075   -4.9170   20.8665 C   0  0  0  0  0  0  0  0  0  0  0  0
   10.3709   -3.7795   17.5524 C   0  0  0  0  0  0  0  0  0  0  0  0
   10.3169   -5.6238   18.7935 C   0  0  0  0  0  0  0  0  0  0  0  0
    1.8701  -10.0642   17.2937 O   0  0  0  0  0  0  0  0  0  0  0  0
    0.5025  -10.4091   14.9293 C   0  0  0  0  0  0  0  0  0  0  0  0
    6.9971   -7.4547   16.2410 He  0  0  0  0  0  0  0  0  0  0  0  0
    9.1038   -7.7784   17.9351 He  0  0  0  0  0  0  0  0  0  0  0  0
  1 13  2  0
  1 20  1  0
  1 27  1  0
  2  7  4  0
  2 27  2  0
  3 10  4  0
  3 22  3  0
  3 29  3  0
  3 30  4  0
  4 26  4  0
  4 31  4  0
  5  6  4  0
  5  7  3  0
  5 26  4  0
  5 28  3  0
  6 23  4  0
  7 11  1  0
  7 15  2  0
  7 25  2  0
  8  9  1  0
  8 17  1  0
  8 20  1  0
  8 24  4  0
  9 11  1  0
  9 13  1  0
 10 16  4  0
 10 23  3  0
 10 27  1  0
 10 32  3  0
 11 13  1  0
 11 14  3  0
 11 28  3  0
 12 16  4  0
 12 17  3  0
 12 22  4  0
 12 24  2  0
 12 32  4  0
 13 19  2  0
 13 26  1  0
 13 30  2  0
 13 31  3  0
 13 32  4  0
 14 15  1  0
 14 29  4  0
 14 31  1  0
 16 22  2  0
 17 19  4  0
 17 26  1  0
 17 27  3  0
 18 25  4  0
 18 29  4  0
 19 24  4  0
 21 29  4  0
 21 30  4  0
 22 25  4  0
 23 31  4  0
 23 32  4  0
 25 27  4  0
 27 28  4  0
 27 30  4  0
 29 30  3  0
M  END
$$$$

 Created by Python create_sdf_string function

 34 39  0  0  0  0  0  0  0  0999 V2000
    7.1640   -8.0258   15.3087 C   0  0  0  0  0  0  0  0  0  0  0  0
   11.3151   -3.2585   22.1030 C   0  0  0  0  0  0  0  0  0  0  0  0
    9.8693   -7.1346   18.9261 C   0  0  0  0  0  0  0  0  0  0  0  0
    1.7763  -10.4307   18.2364 N   0  0  0  0  0  0  0  0  0  0  0  0
    0.1674  -12.0545   18.1178 N   0  0  0  0  0  0  0  0  0  0  0  0
    7.0194   -7.3503   16.5873 N   0  0  0  0  0  0  0  0  0  0  0  0
   -0.1055  -11.7318   16.8264 C   0  0  0  0  0  0  0  0  0  0  0  0
   11.0770   -4.5946   22.2858 C   0  0  0  0  0  0  0  0  0  0  0  0
    5.0749   -9.2074   14.8785 N   0  0  0  0  0  0  0  0  0  0  0  0
    4.2480   -8.2811   15.5895 C   0  0  0  0  0  0  0  0  0  0  0  0
   -1.0942  -12.3981   16.1048 N   0  0  0  0  0  0  0  0  0  0  0  0
    4.5853   -7.7277   16.8824 C   0  0  0  0  0  0  0  0  0  0  0  0
   -0.5534  -11.1394   14.2049 N   0  0  0  0  0  0  0  0  0  0  0  0
    5.8440   -7.5112   17.3756 C   0  0  0  0  0  0  0  0  0  0  0  0
    2.0230   -8.8394   16.5625 N   0  0  0  0  0  0  0  0  0  0  0  0
    2.8956   -8.7146   15.4252 C   0  0  0  0  0  0  0  0  0  0  0  0
   -1.2635  -12.0844   14.8188 C   0  0  0  0  0  0  0  0  0  0  0  0
    1.3384  -11.7880   20.1201 N   0  0  0  0  0  0  0  0  0  0  0  0
   10.7577   -3.1278   18.4790 C   0  0  0  0  0  0  0  0  0  0  0  0
    8.2382   -6.9322   17.1701 C   0  0  0  0  0  0  0  0  0  0  0  0
    6.3939   -9.3720   15.2608 C   0  0  0  0  0  0  0  0  0  0  0  0
    9.6797   -5.1489   17.7508 C   0  0  0  0  0  0  0  0  0  0  0  0
   11.2289   -2.7877   20.8297 N   0  0  0  0  0  0  0  0  0  0  0  0
    0.5921  -10.7430   16.2021 C   0  0  0  0  0  0  0  0  0  0  0  0
    8.7557   -5.7836   16.9072 N   0  0  0  0  0  0  0  0  0  0  0  0
   10.8681   -3.6052   19.7636 C   0  0  0  0  0  0  0  0  0  0  0  0
    1.0913  -11.4211   18.8025 C   0  0  0  0  0  0  0  0  0  0  0  0
   10.5574   -4.9582   19.8944 C   0  0  0  0  0  0  0  0  0  0  0  0
    8.9615   -7.7415   18.0424 C   0  0  0  0  0  0  0  0  0  0  0  0
   10.7485   -5.4066   21.2364 C   0  0  0  0  0  0  0  0  0  0  0  0
   10.1634   -3.9013   17.5039 C   0  0  0  0  0  0  0  0  0  0  0  0
   10.0538   -5.7446   18.8862 C   0  0  0  0  0  0  0  0  0  0  0  0
    1.4761  -10.0338   17.0082 C   0  0  0  0  0  0  0  0  0  0  0  0
    0.3675  -10.4681   14.8429 C   0  0  0  0  0  0  0  0  0  0  0  0
  1  6  1  0
  1 21  1  0
  2  8  4  0
  2 23  4  0
  3 29  4  0
  3 32  4  0
  4 27  4  0
  4 33  4  0
  5  7  4  0
  5 27  4  0
  6 14  1  0
  6 20  1  0
  7 11  4  0
  7 24  4  0
  8 30  4  0
  9 10  1  0
  9 21  1  0
 10 12  1  0
 10 16  1  0
 11 17  4  0
 12 14  1  0
 13 17  4  0
 13 34  4  0
 15 16  1  0
 15 33  1  0
 18 27  1  0
 19 26  4  0
 19 31  4  0
 20 25  4  0
 20 29  4  0
 22 25  4  0
 22 31  4  0
 22 32  4  0
 23 26  4  0
 24 33  4  0
 24 34  4  0
 26 28  4  0
 28 30  4  0
 28 32  4  0
M  END
$$$$

 Created by Python create_sdf_string function

 34 58  0  0  0  0  0  0  0  0999 V2000
    7.2746   -7.9835   15.6443 C   0  0  0  0  0  0  0  0  0  0  0  0
   11.3456   -3.2965   22.0618 C   0  0  0  0  0  0  0  0  0  0  0  0
    1.2914  -10.6663   18.4572 N   0  0  0  0  0  0  0  0  0  0  0  0
    7.3811   -7.6264   16.2960 N   0  0  0  0  0  0  0  0  0  0  0  0
   -0.3466  -11.8562   16.7983 C   0  0  0  0  0  0  0  0  0  0  0  0
   10.9328   -4.3970   22.2657 C   0  0  0  0  0  0  0  0  0  0  0  0
    5.1510   -9.2759   14.6859 N   0  0  0  0  0  0  0  0  0  0  0  0
    4.5618   -8.4242   15.7393 C   0  0  0  0  0  0  0  0  0  0  0  0
   -1.0816  -12.5904   16.0865 C   0  0  0  0  0  0  0  0  0  0  0  0
    4.9023   -7.6773   16.9845 C   0  0  0  0  0  0  0  0  0  0  0  0
   -0.5437  -10.8871   14.2433 N   0  0  0  0  0  0  0  0  0  0  0  0
    5.8259   -7.5909   17.4646 C   0  0  0  0  0  0  0  0  0  0  0  0
    2.4105   -8.9990   16.7156 N   0  0  0  0  0  0  0  0  0  0  0  0
    2.9713   -8.7087   15.4609 C   0  0  0  0  0  0  0  0  0  0  0  0
   -1.4237  -12.1332   14.6043 C   0  0  0  0  0  0  0  0  0  0  0  0
    1.4672  -11.8265   20.2214 N   0  0  0  0  0  0  0  0  0  0  0  0
   10.5957   -3.0979   18.3324 C   0  0  0  0  0  0  0  0  0  0  0  0
    8.2575   -6.9636   17.1953 C   0  0  0  0  0  0  0  0  0  0  0  0
    6.6558   -9.1941   14.8911 C   0  0  0  0  0  0  0  0  0  0  0  0
    9.5693   -5.1772   17.8791 C   0  0  0  0  0  0  0  0  0  0  0  0
   11.3584   -2.9855   20.8829 N   0  0  0  0  0  0  0  0  0  0  0  0
    0.5735  -10.4204   16.1017 C   0  0  0  0  0  0  0  0  0  0  0  0
    8.7513   -5.8763   17.0611 N   0  0  0  0  0  0  0  0  0  0  0  0
    0.8330  -11.3228   18.8979 C   0  0  0  0  0  0  0  0  0  0  0  0
   10.4804   -4.9639   19.6020 C   0  0  0  0  0  0  0  0  0  0  0  0
    8.9254   -7.9924   18.1336 C   0  0  0  0  0  0  0  0  0  0  0  0
   10.9306   -5.5174   21.0200 C   0  0  0  0  0  0  0  0  0  0  0  0
   10.3068   -3.7994   17.5935 C   0  0  0  0  0  0  0  0  0  0  0  0
   10.3398   -5.7217   19.0421 C   0  0  0  0  0  0  0  0  0  0  0  0
    1.5189  -10.2112   16.6713 O   0  0  0  0  0  0  0  0  0  0  0  0
    0.3686  -10.3690   14.9811 P   0  0  0  0  0  0  0  0  0  0  0  0
    9.8915   -6.8692   18.9586 He  0  0  0  0  0  0  0  0  0  0  0  0
    0.1556  -11.9698   18.1573 He  0  0  0  0  0  0  0  0  0  0  0  0
   10.9174   -3.7872   19.6826 He  0  0  0  0  0  0  0  0  0  0  0  0
  1  4  1  0
  1  9  1  0
  1 10  1  0
  1 11  2  0
  1 17  1  0
  1 19  1  0
  2  6  1  0
  2 13  2  0
  2 15  4  0
  2 21  3  0
  2 25  2  0
  3  6  2  0
  3 14  1  0
  3 21  3  0
  3 24  4  0
  3 30  4  0
  4  6  1  0
  4 12  1  0
  4 18  1  0
  4 20  1  0
  5 21  1  0
  5 22  4  0
  6 14  3  0
  6 15  3  0
  6 21  4  0
  6 26  4  0
  6 27  4  0
  7  8  1  0
  7 19  1  0
  7 27  2  0
  7 31  1  0
  8 10  1  0
  8 14  1  0
  9 15  4  0
 10 12  1  0
 10 20  3  0
 11 14  2  0
 11 31  4  0
 13 14  1  0
 13 28  3  0
 13 30  1  0
 14 18  2  0
 14 28  4  0
 15 19  3  0
 16 24  1  0
 17 26  2  0
 17 28  4  0
 18 23  4  0
 18 26  4  0
 19 28  2  0
 19 31  3  0
 20 23  4  0
 20 28  4  0
 22 23  4  0
 22 30  4  0
 22 31  4  0
 25 27  4  0
 25 29  4  0
M  END
$$$$

 Created by Python create_sdf_string function

 34 39  0  0  0  0  0  0  0  0999 V2000
    7.2978   -8.0410   15.3614 C   0  0  0  0  0  0  0  0  0  0  0  0
   11.3653   -3.2277   22.0779 C   0  0  0  0  0  0  0  0  0  0  0  0
    9.9267   -7.1152   19.0202 C   0  0  0  0  0  0  0  0  0  0  0  0
    1.6109  -10.4625   18.2878 N   0  0  0  0  0  0  0  0  0  0  0  0
    0.0235  -12.0505   18.1085 N   0  0  0  0  0  0  0  0  0  0  0  0
    7.1890   -7.5107   16.6216 N   0  0  0  0  0  0  0  0  0  0  0  0
   -0.1876  -11.7442   16.7833 C   0  0  0  0  0  0  0  0  0  0  0  0
   11.1240   -4.6081   22.2948 C   0  0  0  0  0  0  0  0  0  0  0  0
    5.1971   -9.1864   14.7880 N   0  0  0  0  0  0  0  0  0  0  0  0
    4.3964   -8.2896   15.6193 C   0  0  0  0  0  0  0  0  0  0  0  0
   -1.1455  -12.4536   16.0408 C   0  0  0  0  0  0  0  0  0  0  0  0
    4.7676   -7.7640   16.8691 C   0  0  0  0  0  0  0  0  0  0  0  0
   -0.6222  -11.0124   14.1755 N   0  0  0  0  0  0  0  0  0  0  0  0
    6.0116   -7.6208   17.4113 C   0  0  0  0  0  0  0  0  0  0  0  0
    2.2895   -9.0836   16.6625 N   0  0  0  0  0  0  0  0  0  0  0  0
    3.0138   -8.7990   15.5582 C   0  0  0  0  0  0  0  0  0  0  0  0
   -1.3142  -12.0697   14.7219 C   0  0  0  0  0  0  0  0  0  0  0  0
    1.1997  -11.7941   20.1466 N   0  0  0  0  0  0  0  0  0  0  0  0
   10.7520   -3.1186   18.4880 C   0  0  0  0  0  0  0  0  0  0  0  0
    8.2938   -7.0142   17.2337 C   0  0  0  0  0  0  0  0  0  0  0  0
    6.5899   -9.3340   15.0378 C   0  0  0  0  0  0  0  0  0  0  0  0
    9.6720   -5.1291   17.7943 C   0  0  0  0  0  0  0  0  0  0  0  0
   11.2847   -2.8396   20.8227 N   0  0  0  0  0  0  0  0  0  0  0  0
    0.5443  -10.7162   16.2227 C   0  0  0  0  0  0  0  0  0  0  0  0
    8.7605   -5.8113   16.9794 N   0  0  0  0  0  0  0  0  0  0  0  0
   10.9105   -3.6274   19.7603 C   0  0  0  0  0  0  0  0  0  0  0  0
    0.9294  -11.4450   18.8359 C   0  0  0  0  0  0  0  0  0  0  0  0
   10.6033   -4.9654   19.9239 C   0  0  0  0  0  0  0  0  0  0  0  0
    9.0152   -7.7576   18.1953 C   0  0  0  0  0  0  0  0  0  0  0  0
   10.8025   -5.4124   21.2548 C   0  0  0  0  0  0  0  0  0  0  0  0
   10.0940   -3.8474   17.5247 C   0  0  0  0  0  0  0  0  0  0  0  0
   10.1038   -5.7373   18.9097 C   0  0  0  0  0  0  0  0  0  0  0  0
    1.4679  -10.0987   17.0532 C   0  0  0  0  0  0  0  0  0  0  0  0
    0.2839  -10.3512   14.9077 C   0  0  0  0  0  0  0  0  0  0  0  0
  1  6  1  0
  1 21  1  0
  2  8  4  0
  2 23  4  0
  3 29  4  0
  3 32  4  0
  4 27  4  0
  4 33  4  0
  5  7  4  0
  5 27  4  0
  6 14  1  0
  6 20  1  0
  7 11  4  0
  7 24  4  0
  8 30  4  0
  9 10  1  0
  9 21  1  0
 10 12  1  0
 10 16  1  0
 11 17  4  0
 12 14  1  0
 13 17  4  0
 13 34  4  0
 15 16  1  0
 15 33  1  0
 18 27  1  0
 19 26  4  0
 19 31  4  0
 20 25  4  0
 20 29  4  0
 22 25  4  0
 22 31  4  0
 22 32  4  0
 23 26  4  0
 24 33  4  0
 24 34  4  0
 26 28  4  0
 28 30  4  0
 28 32  4  0
M  END
$$$$

 Created by Python create_sdf_string function

 34 58  0  0  0  0  0  0  0  0999 V2000
    7.4537   -8.1053   15.0613 C   0  0  0  0  0  0  0  0  0  0  0  0
   11.2163   -3.2371   22.0742 C   0  0  0  0  0  0  0  0  0  0  0  0
    9.8781   -7.1919   19.0233 C   0  0  0  0  0  0  0  0  0  0  0  0
    1.7465  -10.4823   18.1853 N   0  0  0  0  0  0  0  0  0  0  0  0
    7.4900   -7.7055   16.8205 N   0  0  0  0  0  0  0  0  0  0  0  0
   -0.1736  -11.5973   16.6853 C   0  0  0  0  0  0  0  0  0  0  0  0
   10.9492   -4.6704   22.0400 C   0  0  0  0  0  0  0  0  0  0  0  0
    5.4463   -8.9804   14.8354 N   0  0  0  0  0  0  0  0  0  0  0  0
   -1.2251  -12.3090   16.1023 C   0  0  0  0  0  0  0  0  0  0  0  0
    4.4589   -7.8202   16.9011 C   0  0  0  0  0  0  0  0  0  0  0  0
   -0.4065  -10.9893   14.3783 N   0  0  0  0  0  0  0  0  0  0  0  0
    5.5902   -7.6237   17.7681 C   0  0  0  0  0  0  0  0  0  0  0  0
    2.3370   -9.3930   16.9827 N   0  0  0  0  0  0  0  0  0  0  0  0
    3.1400   -8.5669   15.8955 C   0  0  0  0  0  0  0  0  0  0  0  0
   -1.3359  -11.9455   14.7046 C   0  0  0  0  0  0  0  0  0  0  0  0
    1.6756  -11.8071   20.0225 N   0  0  0  0  0  0  0  0  0  0  0  0
   10.6173   -3.1213   18.4070 C   0  0  0  0  0  0  0  0  0  0  0  0
    8.2185   -7.2280   17.3018 C   0  0  0  0  0  0  0  0  0  0  0  0
    6.4058   -9.4498   14.9710 C   0  0  0  0  0  0  0  0  0  0  0  0
    9.6502   -5.2282   17.8790 C   0  0  0  0  0  0  0  0  0  0  0  0
   11.1722   -2.8531   20.7416 N   0  0  0  0  0  0  0  0  0  0  0  0
    0.4338  -10.8144   16.0322 C   0  0  0  0  0  0  0  0  0  0  0  0
    8.7898   -5.5877   16.9517 N   0  0  0  0  0  0  0  0  0  0  0  0
   10.9063   -3.7814   19.6455 C   0  0  0  0  0  0  0  0  0  0  0  0
    0.7955  -11.4643   18.6583 F   0  0  0  0  0  0  0  0  0  0  0  0
   10.5974   -4.8578   19.9073 C   0  0  0  0  0  0  0  0  0  0  0  0
    9.3018   -7.5472   18.3068 C   0  0  0  0  0  0  0  0  0  0  0  0
   10.8015   -5.3632   20.9795 C   0  0  0  0  0  0  0  0  0  0  0  0
    9.9748   -3.6715   17.6234 C   0  0  0  0  0  0  0  0  0  0  0  0
    9.9831   -5.8163   19.1236 C   0  0  0  0  0  0  0  0  0  0  0  0
    1.6514  -10.0300   17.0987 C   0  0  0  0  0  0  0  0  0  0  0  0
    0.1788  -10.1818   14.8523 C   0  0  0  0  0  0  0  0  0  0  0  0
    0.1697  -11.9177   18.0587 He  0  0  0  0  0  0  0  0  0  0  0  0
    4.4681   -8.5104   15.4565 He  0  0  0  0  0  0  0  0  0  0  0  0
  1  5  1  0
  1 12  4  0
  1 19  1  0
  1 23  3  0
  2  7  4  0
  2 21  4  0
  3  7  4  0
  3 12  4  0
  3 19  3  0
  3 21  2  0
  3 30  4  0
  4 25  4  0
  4 31  4  0
  4 32  2  0
  5 11  1  0
  5 12  1  0
  5 18  1  0
  6  8  4  0
  6  9  4  0
  6 22  4  0
  6 28  3  0
  7 22  4  0
  7 28  4  0
  8 19  1  0
  8 21  2  0
  9 15  4  0
  9 28  1  0
 10 12  1  0
 10 14  4  0
 10 26  3  0
 11 15  4  0
 11 19  1  0
 11 32  4  0
 12 24  2  0
 13 14  1  0
 13 18  1  0
 13 28  1  0
 13 31  1  0
 13 32  3  0
 14 18  3  0
 14 23  1  0
 14 26  3  0
 16 17  2  0
 16 25  1  0
 17 24  4  0
 17 29  4  0
 18 23  4  0
 18 27  4  0
 20 23  4  0
 20 29  4  0
 20 30  4  0
 21 24  4  0
 21 26  3  0
 22 31  4  0
 22 32  4  0
 24 26  4  0
 26 28  4  0
 26 30  4  0
M  END
$$$$

 Created by Python create_sdf_string function

 34 39  0  0  0  0  0  0  0  0999 V2000
    7.3793   -8.1551   15.3582 C   0  0  0  0  0  0  0  0  0  0  0  0
   11.3046   -3.2257   22.0457 C   0  0  0  0  0  0  0  0  0  0  0  0
    9.9533   -7.0666   19.0524 C   0  0  0  0  0  0  0  0  0  0  0  0
    1.7418  -10.5124   18.2408 N   0  0  0  0  0  0  0  0  0  0  0  0
    0.0782  -12.0234   18.0884 N   0  0  0  0  0  0  0  0  0  0  0  0
    7.2020   -7.6354   16.6803 N   0  0  0  0  0  0  0  0  0  0  0  0
   -0.1921  -11.6554   16.7698 C   0  0  0  0  0  0  0  0  0  0  0  0
   11.1253   -4.5840   22.2825 C   0  0  0  0  0  0  0  0  0  0  0  0
    5.1762   -9.0189   14.7845 N   0  0  0  0  0  0  0  0  0  0  0  0
    4.4312   -8.2275   15.6313 C   0  0  0  0  0  0  0  0  0  0  0  0
   -1.1668  -12.3117   16.0291 C   0  0  0  0  0  0  0  0  0  0  0  0
    4.7450   -7.7152   16.9837 C   0  0  0  0  0  0  0  0  0  0  0  0
   -0.6107  -10.9026   14.1815 N   0  0  0  0  0  0  0  0  0  0  0  0
    6.0162   -7.7486   17.4145 C   0  0  0  0  0  0  0  0  0  0  0  0
    2.3265   -9.0666   16.6741 N   0  0  0  0  0  0  0  0  0  0  0  0
    3.0613   -8.7114   15.6236 C   0  0  0  0  0  0  0  0  0  0  0  0
   -1.3369  -11.9099   14.7005 C   0  0  0  0  0  0  0  0  0  0  0  0
    1.3605  -11.8758   20.0207 N   0  0  0  0  0  0  0  0  0  0  0  0
   10.6489   -3.0872   18.4877 C   0  0  0  0  0  0  0  0  0  0  0  0
    8.3315   -7.0680   17.2770 C   0  0  0  0  0  0  0  0  0  0  0  0
    6.4968   -9.3745   15.0730 C   0  0  0  0  0  0  0  0  0  0  0  0
    9.5985   -5.1264   17.8270 C   0  0  0  0  0  0  0  0  0  0  0  0
   11.2174   -2.7729   20.7871 N   0  0  0  0  0  0  0  0  0  0  0  0
    0.5643  -10.6576   16.2243 C   0  0  0  0  0  0  0  0  0  0  0  0
    8.7040   -5.8352   17.0241 N   0  0  0  0  0  0  0  0  0  0  0  0
   10.8222   -3.5853   19.7560 C   0  0  0  0  0  0  0  0  0  0  0  0
    1.0451  -11.4828   18.7782 C   0  0  0  0  0  0  0  0  0  0  0  0
   10.5542   -4.9328   19.9088 C   0  0  0  0  0  0  0  0  0  0  0  0
    9.0726   -7.7435   18.2281 C   0  0  0  0  0  0  0  0  0  0  0  0
   10.7924   -5.4414   21.2336 C   0  0  0  0  0  0  0  0  0  0  0  0
    9.9836   -3.8364   17.5351 C   0  0  0  0  0  0  0  0  0  0  0  0
   10.0742   -5.6917   18.9370 C   0  0  0  0  0  0  0  0  0  0  0  0
    1.5435  -10.0738   17.0360 C   0  0  0  0  0  0  0  0  0  0  0  0
    0.3205  -10.3012   14.9076 C   0  0  0  0  0  0  0  0  0  0  0  0
  1  6  1  0
  1 21  1  0
  2  8  4  0
  2 23  4  0
  3 29  4  0
  3 32  4  0
  4 27  4  0
  4 33  4  0
  5  7  4  0
  5 27  4  0
  6 14  1  0
  6 20  1  0
  7 11  4  0
  7 24  4  0
  8 30  4  0
  9 10  1  0
  9 21  1  0
 10 12  1  0
 10 16  1  0
 11 17  4  0
 12 14  1  0
 13 17  4  0
 13 34  4  0
 15 16  1  0
 15 33  1  0
 18 27  1  0
 19 26  4  0
 19 31  4  0
 20 25  4  0
 20 29  4  0
 22 25  4  0
 22 31  4  0
 22 32  4  0
 23 26  4  0
 24 33  4  0
 24 34  4  0
 26 28  4  0
 28 30  4  0
 28 32  4  0
M  END
$$$$

 Created by Python create_sdf_string function

 34 57  0  0  0  0  0  0  0  0999 V2000
    7.4153   -7.9060   15.2978 C   0  0  0  0  0  0  0  0  0  0  0  0
   11.2230   -3.1502   21.9437 N   0  0  0  0  0  0  0  0  0  0  0  0
    9.9052   -6.9986   19.0006 C   0  0  0  0  0  0  0  0  0  0  0  0
    1.8212  -10.3140   18.2811 N   0  0  0  0  0  0  0  0  0  0  0  0
    0.2105  -12.0830   17.9713 N   0  0  0  0  0  0  0  0  0  0  0  0
   -0.1093  -11.8002   16.9837 C   0  0  0  0  0  0  0  0  0  0  0  0
    5.2959   -8.9200   15.1056 N   0  0  0  0  0  0  0  0  0  0  0  0
    4.2135   -8.1094   15.8256 C   0  0  0  0  0  0  0  0  0  0  0  0
   -1.1599  -12.3663   15.8853 C   0  0  0  0  0  0  0  0  0  0  0  0
    4.9083   -7.3823   16.9172 C   0  0  0  0  0  0  0  0  0  0  0  0
   -0.5994  -10.8866   14.0514 N   0  0  0  0  0  0  0  0  0  0  0  0
    2.4749   -8.7697   16.6237 N   0  0  0  0  0  0  0  0  0  0  0  0
    3.3697   -8.5858   15.7386 C   0  0  0  0  0  0  0  0  0  0  0  0
   -1.2083  -11.8848   14.4836 C   0  0  0  0  0  0  0  0  0  0  0  0
   10.6442   -3.1837   18.3036 C   0  0  0  0  0  0  0  0  0  0  0  0
    8.3259   -7.1150   17.0562 C   0  0  0  0  0  0  0  0  0  0  0  0
    6.7489   -9.4851   14.9081 C   0  0  0  0  0  0  0  0  0  0  0  0
    9.6855   -5.0445   17.8099 C   0  0  0  0  0  0  0  0  0  0  0  0
   11.0790   -2.7100   20.8532 N   0  0  0  0  0  0  0  0  0  0  0  0
    0.5639  -10.4828   16.1142 C   0  0  0  0  0  0  0  0  0  0  0  0
    8.7407   -5.8853   17.2303 N   0  0  0  0  0  0  0  0  0  0  0  0
   11.1443   -3.6523   19.5274 C   0  0  0  0  0  0  0  0  0  0  0  0
    1.1616  -11.5777   18.9378 C   0  0  0  0  0  0  0  0  0  0  0  0
   10.7585   -4.9816   20.0119 C   0  0  0  0  0  0  0  0  0  0  0  0
    8.8217   -7.6104   18.7253 C   0  0  0  0  0  0  0  0  0  0  0  0
   10.6990   -5.8367   21.1588 N   0  0  0  0  0  0  0  0  0  0  0  0
    9.9446   -4.0043   17.4170 C   0  0  0  0  0  0  0  0  0  0  0  0
   10.4649   -6.1162   18.7454 C   0  0  0  0  0  0  0  0  0  0  0  0
    1.3592  -10.1167   17.0587 C   0  0  0  0  0  0  0  0  0  0  0  0
    0.4335  -10.3817   14.9504 C   0  0  0  0  0  0  0  0  0  0  0  0
    7.3085   -7.7140   16.4758 He  0  0  0  0  0  0  0  0  0  0  0  0
   11.1398   -4.7607   22.2229 He  0  0  0  0  0  0  0  0  0  0  0  0
    5.7540   -7.9710   17.3042 He  0  0  0  0  0  0  0  0  0  0  0  0
    1.4438  -12.0617   19.9339 He  0  0  0  0  0  0  0  0  0  0  0  0
  1  4  3  0
  1 11  2  0
  1 17  1  0
  1 18  4  0
  1 24  2  0
  1 29  2  0
  2 12  1  0
  2 19  4  0
  2 24  2  0
  2 29  4  0
  3 23  1  0
  3 25  4  0
  3 28  4  0
  3 30  3  0
  4 23  4  0
  4 24  2  0
  4 29  4  0
  5  6  4  0
  5 13  4  0
  5 23  4  0
  6  9  3  0
  6 10  4  0
  6 20  4  0
  7  8  1  0
  7 17  1  0
  7 20  4  0
  7 26  4  0
  8 10  1  0
  8 13  1  0
  8 29  4  0
  9 14  4  0
  9 16  4  0
 11 12  3  0
 11 14  4  0
 11 26  4  0
 11 30  4  0
 12 13  1  0
 12 17  3  0
 12 29  1  0
 13 23  2  0
 13 30  1  0
 15 22  4  0
 15 27  4  0
 16 20  2  0
 16 21  4  0
 16 25  4  0
 17 28  2  0
 18 20  4  0
 18 21  4  0
 18 27  4  0
 18 28  4  0
 19 22  4  0
 20 29  4  0
 20 30  4  0
 24 26  4  0
 24 28  4  0
 28 29  4  0
M  END
$$$$

 Created by Python create_sdf_string function

 34 39  0  0  0  0  0  0  0  0999 V2000
    7.3880   -8.0602   15.3516 C   0  0  0  0  0  0  0  0  0  0  0  0
   11.2766   -3.2806   21.9977 N   0  0  0  0  0  0  0  0  0  0  0  0
    9.8692   -7.1300   19.1123 C   0  0  0  0  0  0  0  0  0  0  0  0
    1.7626  -10.4406   18.2659 N   0  0  0  0  0  0  0  0  0  0  0  0
    0.1731  -12.0723   18.0019 N   0  0  0  0  0  0  0  0  0  0  0  0
    7.2155   -7.6078   16.6697 N   0  0  0  0  0  0  0  0  0  0  0  0
   -0.0856  -11.6773   16.7164 C   0  0  0  0  0  0  0  0  0  0  0  0
   11.1184   -4.6477   22.2351 C   0  0  0  0  0  0  0  0  0  0  0  0
    5.1863   -9.0965   14.9145 N   0  0  0  0  0  0  0  0  0  0  0  0
    4.4345   -8.0756   15.5504 C   0  0  0  0  0  0  0  0  0  0  0  0
   -1.0764  -12.3345   15.9319 C   0  0  0  0  0  0  0  0  0  0  0  0
    4.8340   -7.5016   16.8644 C   0  0  0  0  0  0  0  0  0  0  0  0
   -0.5184  -10.8914   14.1180 N   0  0  0  0  0  0  0  0  0  0  0  0
    6.0137   -7.8533   17.4128 C   0  0  0  0  0  0  0  0  0  0  0  0
    2.2623   -8.8652   16.6791 N   0  0  0  0  0  0  0  0  0  0  0  0
    3.1226   -8.6273   15.6483 C   0  0  0  0  0  0  0  0  0  0  0  0
   -1.2477  -11.9190   14.6350 C   0  0  0  0  0  0  0  0  0  0  0  0
    1.4151  -11.9816   19.9771 N   0  0  0  0  0  0  0  0  0  0  0  0
   10.7210   -3.1597   18.4035 C   0  0  0  0  0  0  0  0  0  0  0  0
    8.2924   -7.0773   17.3195 C   0  0  0  0  0  0  0  0  0  0  0  0
    6.5354   -9.3027   14.9885 C   0  0  0  0  0  0  0  0  0  0  0  0
    9.6480   -5.2195   17.7849 C   0  0  0  0  0  0  0  0  0  0  0  0
   11.2364   -2.8122   20.7486 N   0  0  0  0  0  0  0  0  0  0  0  0
    0.6260  -10.6307   16.1981 C   0  0  0  0  0  0  0  0  0  0  0  0
    8.7822   -5.9079   16.9932 N   0  0  0  0  0  0  0  0  0  0  0  0
   10.8785   -3.6429   19.6937 C   0  0  0  0  0  0  0  0  0  0  0  0
    1.1051  -11.4952   18.7311 C   0  0  0  0  0  0  0  0  0  0  0  0
   10.6282   -4.9848   19.9098 C   0  0  0  0  0  0  0  0  0  0  0  0
    8.9410   -7.7564   18.3647 C   0  0  0  0  0  0  0  0  0  0  0  0
   10.9238   -5.5172   21.1984 N   0  0  0  0  0  0  0  0  0  0  0  0
   10.0929   -3.9454   17.4577 C   0  0  0  0  0  0  0  0  0  0  0  0
   10.0906   -5.7542   18.9531 C   0  0  0  0  0  0  0  0  0  0  0  0
    1.5472  -10.0049   17.0343 C   0  0  0  0  0  0  0  0  0  0  0  0
    0.3717  -10.2463   14.8956 C   0  0  0  0  0  0  0  0  0  0  0  0
  1  6  1  0
  1 21  1  0
  2  8  4  0
  2 23  4  0
  3 29  4  0
  3 32  4  0
  4 27  4  0
  4 33  4  0
  5  7  4  0
  5 27  4  0
  6 14  1  0
  6 20  1  0
  7 11  4  0
  7 24  4  0
  8 30  4  0
  9 10  1  0
  9 21  1  0
 10 12  1  0
 10 16  1  0
 11 17  4  0
 12 14  1  0
 13 17  4  0
 13 34  4  0
 15 16  1  0
 15 33  1  0
 18 27  1  0
 19 26  4  0
 19 31  4  0
 20 25  4  0
 20 29  4  0
 22 25  4  0
 22 31  4  0
 22 32  4  0
 23 26  4  0
 24 33  4  0
 24 34  4  0
 26 28  4  0
 28 30  4  0
 28 32  4  0
M  END
$$$$

 Created by Python create_sdf_string function

 34 65  0  0  0  0  0  0  0  0999 V2000
    7.4097   -8.2447   15.6236 C   0  0  0  0  0  0  0  0  0  0  0  0
   11.3587   -3.2087   22.0983 N   0  0  0  0  0  0  0  0  0  0  0  0
    9.9313   -6.9468   19.1912 O   0  0  0  0  0  0  0  0  0  0  0  0
    1.6308  -10.7275   18.5090 N   0  0  0  0  0  0  0  0  0  0  0  0
    0.2683  -12.1710   17.9637 N   0  0  0  0  0  0  0  0  0  0  0  0
    7.1596   -7.2904   16.6711 N   0  0  0  0  0  0  0  0  0  0  0  0
   -0.0403  -11.4764   16.7409 C   0  0  0  0  0  0  0  0  0  0  0  0
   11.1147   -4.5770   22.2837 C   0  0  0  0  0  0  0  0  0  0  0  0
    5.2013   -8.9510   14.8204 N   0  0  0  0  0  0  0  0  0  0  0  0
    4.0487   -7.7739   15.3486 C   0  0  0  0  0  0  0  0  0  0  0  0
   -1.0671  -12.5079   16.0272 C   0  0  0  0  0  0  0  0  0  0  0  0
    4.5912   -7.3257   16.8823 C   0  0  0  0  0  0  0  0  0  0  0  0
   -0.5129  -10.8770   13.9976 N   0  0  0  0  0  0  0  0  0  0  0  0
    6.4941   -7.7526   17.2591 C   0  0  0  0  0  0  0  0  0  0  0  0
    2.1275   -8.9528   16.8163 N   0  0  0  0  0  0  0  0  0  0  0  0
    3.4442   -8.7243   15.2399 C   0  0  0  0  0  0  0  0  0  0  0  0
   -1.3959  -11.8816   14.7621 C   0  0  0  0  0  0  0  0  0  0  0  0
    1.1444  -11.9005   20.1104 N   0  0  0  0  0  0  0  0  0  0  0  0
   10.7604   -3.0329   18.5241 C   0  0  0  0  0  0  0  0  0  0  0  0
    6.5375   -9.5095   14.9332 C   0  0  0  0  0  0  0  0  0  0  0  0
    9.7625   -5.2967   17.5421 C   0  0  0  0  0  0  0  0  0  0  0  0
   11.0842   -2.9045   20.7234 N   0  0  0  0  0  0  0  0  0  0  0  0
    0.6892  -10.5714   16.1539 C   0  0  0  0  0  0  0  0  0  0  0  0
    8.7038   -5.8355   16.9543 P   0  0  0  0  0  0  0  0  0  0  0  0
   10.6716   -3.5972   19.7647 C   0  0  0  0  0  0  0  0  0  0  0  0
    1.0574  -11.3967   18.5940 C   0  0  0  0  0  0  0  0  0  0  0  0
   10.5658   -5.1481   20.0125 C   0  0  0  0  0  0  0  0  0  0  0  0
    8.9364   -7.5008   18.4282 C   0  0  0  0  0  0  0  0  0  0  0  0
   10.7950   -5.4545   21.3294 N   0  0  0  0  0  0  0  0  0  0  0  0
    9.9441   -3.8324   17.4902 C   0  0  0  0  0  0  0  0  0  0  0  0
   10.3334   -5.7510   18.9718 C   0  0  0  0  0  0  0  0  0  0  0  0
    1.6842   -9.8475   16.9976 C   0  0  0  0  0  0  0  0  0  0  0  0
    0.3565  -10.1950   15.1724 C   0  0  0  0  0  0  0  0  0  0  0  0
    8.4587   -7.1284   17.5627 He  0  0  0  0  0  0  0  0  0  0  0  0
  1 20  1  0
  2  7  2  0
  2  8  4  0
  2 12  3  0
  2 22  4  0
  3  5  4  0
  3 28  4  0
  3 30  1  0
  3 31  4  0
  3 32  2  0
  4 26  4  0
  4 32  4  0
  5  7  4  0
  5  9  3  0
  5 14  1  0
  5 17  3  0
  5 26  4  0
  5 27  3  0
  6 14  1  0
  7 11  4  0
  7 19  2  0
  7 23  4  0
  7 29  3  0
  8 18  3  0
  8 29  4  0
  9 10  1  0
  9 19  3  0
  9 20  1  0
 10 12  1  0
 10 16  2  0
 10 20  2  0
 11 17  4  0
 12 15  4  0
 12 21  1  0
 12 30  1  0
 13 17  4  0
 13 27  4  0
 14 21  1  0
 14 22  4  0
 15 16  1  0
 15 17  3  0
 15 32  1  0
 17 33  1  0
 18 22  1  0
 18 24  1  0
 18 26  1  0
 19 25  4  0
 19 30  4  0
 21 24  4  0
 21 30  4  0
 21 31  4  0
 22 24  1  0
 22 25  4  0
 22 31  1  0
 23 27  3  0
 23 32  2  0
 23 33  4  0
 24 28  2  0
 25 27  4  0
 25 30  1  0
 25 31  4  0
 27 29  4  0
 28 30  4  0
 29 33  4  0
 31 32  3  0
M  END
$$$$

 Created by Python create_sdf_string function

 34 39  0  0  0  0  0  0  0  0999 V2000
    7.4691   -8.2234   15.4965 C   0  0  0  0  0  0  0  0  0  0  0  0
   11.3034   -3.2208   22.0972 N   0  0  0  0  0  0  0  0  0  0  0  0
    9.8539   -7.0295   19.1719 C   0  0  0  0  0  0  0  0  0  0  0  0
    1.7431  -10.4684   18.2660 N   0  0  0  0  0  0  0  0  0  0  0  0
    0.1507  -12.0956   18.0095 N   0  0  0  0  0  0  0  0  0  0  0  0
    7.2094   -7.5284   16.6976 N   0  0  0  0  0  0  0  0  0  0  0  0
   -0.0970  -11.6958   16.7377 C   0  0  0  0  0  0  0  0  0  0  0  0
   11.1318   -4.5953   22.3190 C   0  0  0  0  0  0  0  0  0  0  0  0
    5.2287   -8.8282   14.6562 N   0  0  0  0  0  0  0  0  0  0  0  0
    4.3591   -8.0692   15.5101 C   0  0  0  0  0  0  0  0  0  0  0  0
   -1.0653  -12.3446   15.9628 C   0  0  0  0  0  0  0  0  0  0  0  0
    4.7525   -7.4600   16.8026 C   0  0  0  0  0  0  0  0  0  0  0  0
   -0.6197  -10.8303   14.1591 N   0  0  0  0  0  0  0  0  0  0  0  0
    5.9863   -7.7320   17.3982 C   0  0  0  0  0  0  0  0  0  0  0  0
    2.2801   -8.9139   16.6906 N   0  0  0  0  0  0  0  0  0  0  0  0
    3.0284   -8.7065   15.5442 C   0  0  0  0  0  0  0  0  0  0  0  0
   -1.2886  -11.8962   14.6805 C   0  0  0  0  0  0  0  0  0  0  0  0
    1.1947  -11.8901   20.0464 N   0  0  0  0  0  0  0  0  0  0  0  0
   10.6834   -3.0725   18.5280 C   0  0  0  0  0  0  0  0  0  0  0  0
    8.3297   -7.0244   17.3014 C   0  0  0  0  0  0  0  0  0  0  0  0
    6.4384   -9.3509   15.1420 C   0  0  0  0  0  0  0  0  0  0  0  0
    9.6924   -5.1268   17.8266 C   0  0  0  0  0  0  0  0  0  0  0  0
   11.1822   -2.7615   20.8475 N   0  0  0  0  0  0  0  0  0  0  0  0
    0.6056  -10.6354   16.2059 C   0  0  0  0  0  0  0  0  0  0  0  0
    8.8306   -5.8500   16.9434 C   0  0  0  0  0  0  0  0  0  0  0  0
   10.8386   -3.5978   19.7990 C   0  0  0  0  0  0  0  0  0  0  0  0
    1.0253  -11.4850   18.7524 C   0  0  0  0  0  0  0  0  0  0  0  0
   10.5796   -4.9433   19.9832 C   0  0  0  0  0  0  0  0  0  0  0  0
    8.9557   -7.6706   18.3282 C   0  0  0  0  0  0  0  0  0  0  0  0
   10.8190   -5.4458   21.2835 N   0  0  0  0  0  0  0  0  0  0  0  0
   10.1542   -3.8438   17.5297 C   0  0  0  0  0  0  0  0  0  0  0  0
   10.0622   -5.6719   19.0000 C   0  0  0  0  0  0  0  0  0  0  0  0
    1.5533  -10.0160   17.0457 C   0  0  0  0  0  0  0  0  0  0  0  0
    0.3181  -10.2200   14.9068 C   0  0  0  0  0  0  0  0  0  0  0  0
  1  6  1  0
  1 21  1  0
  2  8  4  0
  2 23  4  0
  3 29  4  0
  3 32  4  0
  4 27  4  0
  4 33  4  0
  5  7  4  0
  5 27  4  0
  6 14  1  0
  6 20  1  0
  7 11  4  0
  7 24  4  0
  8 30  4  0
  9 10  1  0
  9 21  1  0
 10 12  1  0
 10 16  1  0
 11 17  4  0
 12 14  1  0
 13 17  4  0
 13 34  4  0
 15 16  1  0
 15 33  1  0
 18 27  1  0
 19 26  4  0
 19 31  4  0
 20 25  4  0
 20 29  4  0
 22 25  4  0
 22 31  4  0
 22 32  4  0
 23 26  4  0
 24 33  4  0
 24 34  4  0
 26 28  4  0
 28 30  4  0
 28 32  4  0
M  END
$$$$

 Created by Python create_sdf_string function

 34 67  0  0  0  0  0  0  0  0999 V2000
   11.2258   -3.1894   22.2272 N   0  0  0  0  0  0  0  0  0  0  0  0
    1.8330  -10.5542   18.1747 N   0  0  0  0  0  0  0  0  0  0  0  0
    0.2103  -12.1869   18.0366 N   0  0  0  0  0  0  0  0  0  0  0  0
    7.1541   -7.4237   17.1684 N   0  0  0  0  0  0  0  0  0  0  0  0
   -0.1361  -11.5442   16.9025 C   0  0  0  0  0  0  0  0  0  0  0  0
   10.9936   -4.4630   22.2073 C   0  0  0  0  0  0  0  0  0  0  0  0
    5.4193   -8.9319   14.8476 N   0  0  0  0  0  0  0  0  0  0  0  0
    4.2575   -8.0193   15.7843 C   0  0  0  0  0  0  0  0  0  0  0  0
   -1.2105  -12.4641   16.0661 C   0  0  0  0  0  0  0  0  0  0  0  0
   -0.6026  -10.7823   14.1658 N   0  0  0  0  0  0  0  0  0  0  0  0
    6.0202   -7.7645   17.4862 C   0  0  0  0  0  0  0  0  0  0  0  0
    2.2351   -9.0268   16.6244 S   0  0  0  0  0  0  0  0  0  0  0  0
    3.1798   -8.4846   15.6455 N   0  0  0  0  0  0  0  0  0  0  0  0
   -1.3832  -11.9664   14.4895 C   0  0  0  0  0  0  0  0  0  0  0  0
    1.2472  -11.7892   20.1558 N   0  0  0  0  0  0  0  0  0  0  0  0
   10.7374   -2.9449   18.5867 C   0  0  0  0  0  0  0  0  0  0  0  0
    8.4001   -7.0736   17.4194 C   0  0  0  0  0  0  0  0  0  0  0  0
    6.2787   -8.9143   14.9392 C   0  0  0  0  0  0  0  0  0  0  0  0
    9.7741   -4.9509   17.9231 C   0  0  0  0  0  0  0  0  0  0  0  0
   11.1566   -2.7618   20.8380 N   0  0  0  0  0  0  0  0  0  0  0  0
    0.5514  -10.6294   15.9891 C   0  0  0  0  0  0  0  0  0  0  0  0
    8.8616   -5.6308   16.8421 C   0  0  0  0  0  0  0  0  0  0  0  0
   10.8751   -3.8293   19.5784 C   0  0  0  0  0  0  0  0  0  0  0  0
    1.2160  -11.5266   18.9665 C   0  0  0  0  0  0  0  0  0  0  0  0
   10.8462   -5.1287   20.1076 N   0  0  0  0  0  0  0  0  0  0  0  0
    8.9754   -7.6475   18.3580 C   0  0  0  0  0  0  0  0  0  0  0  0
   10.8631   -5.6320   21.2337 N   0  0  0  0  0  0  0  0  0  0  0  0
   10.1377   -3.8405   17.6546 C   0  0  0  0  0  0  0  0  0  0  0  0
   10.0084   -5.6205   19.0386 C   0  0  0  0  0  0  0  0  0  0  0  0
    1.5391   -9.9676   17.1324 C   0  0  0  0  0  0  0  0  0  0  0  0
    0.2147  -10.2958   14.9345 C   0  0  0  0  0  0  0  0  0  0  0  0
    7.4212   -7.8717   15.3852 He  0  0  0  0  0  0  0  0  0  0  0  0
    9.7939   -6.9872   19.1290 He  0  0  0  0  0  0  0  0  0  0  0  0
    4.5231   -7.5859   16.9189 He  0  0  0  0  0  0  0  0  0  0  0  0
  1  6  4  0
  1  9  4  0
  1 15  1  0
  1 20  4  0
  1 21  4  0
  1 25  1  0
  2  6  3  0
  2 15  1  0
  2 30  4  0
  3  5  4  0
  3  7  3  0
  3 17  1  0
  3 21  3  0
  3 24  4  0
  4 11  1  0
  4 17  1  0
  4 25  4  0
  4 26  2  0
  5  9  4  0
  5 21  4  0
  5 29  4  0
  6 14  1  0
  6 27  4  0
  7  8  1  0
  7  9  1  0
  7 18  1  0
  8 13  1  0
  8 31  1  0
  9 12  3  0
  9 13  4  0
  9 14  4  0
  9 27  4  0
 10 14  4  0
 10 20  4  0
 10 31  4  0
 11 13  3  0
 11 15  2  0
 11 24  4  0
 11 27  4  0
 12 13  1  0
 12 30  1  0
 13 17  3  0
 13 18  2  0
 13 28  2  0
 14 26  1  0
 14 30  3  0
 15 16  3  0
 15 24  1  0
 16 23  4  0
 16 28  4  0
 17 19  3  0
 17 22  4  0
 17 23  3  0
 17 24  4  0
 17 26  4  0
 19 22  4  0
 19 28  4  0
 19 29  4  0
 20 23  4  0
 21 30  4  0
 21 31  4  0
 23 25  4  0
 24 25  4  0
 25 27  4  0
 25 29  4  0
 26 31  4  0
 27 29  4  0
M  END
$$$$

 Created by Python create_sdf_string function

 34 39  0  0  0  0  0  0  0  0999 V2000
    7.3015   -7.8940   15.4494 C   0  0  0  0  0  0  0  0  0  0  0  0
   11.2724   -3.2431   22.1841 N   0  0  0  0  0  0  0  0  0  0  0  0
    9.8738   -6.9909   19.1744 C   0  0  0  0  0  0  0  0  0  0  0  0
    1.7976  -10.4793   18.2253 N   0  0  0  0  0  0  0  0  0  0  0  0
    0.1464  -12.0661   18.0313 N   0  0  0  0  0  0  0  0  0  0  0  0
    7.1258   -7.4264   16.7952 N   0  0  0  0  0  0  0  0  0  0  0  0
   -0.1194  -11.6829   16.7487 C   0  0  0  0  0  0  0  0  0  0  0  0
   11.0986   -4.6077   22.3410 C   0  0  0  0  0  0  0  0  0  0  0  0
    5.1364   -8.8321   14.8324 N   0  0  0  0  0  0  0  0  0  0  0  0
    4.3112   -8.0229   15.6775 C   0  0  0  0  0  0  0  0  0  0  0  0
   -1.1086  -12.3482   15.9941 C   0  0  0  0  0  0  0  0  0  0  0  0
    4.7244   -7.6139   16.9858 C   0  0  0  0  0  0  0  0  0  0  0  0
   -0.6546  -10.8661   14.1604 N   0  0  0  0  0  0  0  0  0  0  0  0
    6.0064   -7.7768   17.5161 C   0  0  0  0  0  0  0  0  0  0  0  0
    2.1829   -8.8176   16.6869 N   0  0  0  0  0  0  0  0  0  0  0  0
    3.0070   -8.6174   15.6136 C   0  0  0  0  0  0  0  0  0  0  0  0
   -1.3445  -11.9081   14.6941 C   0  0  0  0  0  0  0  0  0  0  0  0
    1.2794  -11.8756   20.0447 N   0  0  0  0  0  0  0  0  0  0  0  0
   10.7908   -3.0515   18.5841 C   0  0  0  0  0  0  0  0  0  0  0  0
    8.3153   -6.9365   17.3811 C   0  0  0  0  0  0  0  0  0  0  0  0
    6.5045   -9.0600   15.0382 C   0  0  0  0  0  0  0  0  0  0  0  0
    9.7067   -5.0589   17.8561 C   0  0  0  0  0  0  0  0  0  0  0  0
   11.2371   -2.7850   20.9165 N   0  0  0  0  0  0  0  0  0  0  0  0
    0.5753  -10.6446   16.2053 C   0  0  0  0  0  0  0  0  0  0  0  0
    8.7933   -5.7444   17.0171 C   0  0  0  0  0  0  0  0  0  0  0  0
   10.8797   -3.5728   19.8531 C   0  0  0  0  0  0  0  0  0  0  0  0
    1.0693  -11.4722   18.7610 C   0  0  0  0  0  0  0  0  0  0  0  0
   10.5888   -4.8944   20.0084 C   0  0  0  0  0  0  0  0  0  0  0  0
    8.9502   -7.6397   18.3644 C   0  0  0  0  0  0  0  0  0  0  0  0
   10.8197   -5.4295   21.2911 N   0  0  0  0  0  0  0  0  0  0  0  0
   10.1644   -3.7678   17.6082 C   0  0  0  0  0  0  0  0  0  0  0  0
   10.0889   -5.6433   19.0059 C   0  0  0  0  0  0  0  0  0  0  0  0
    1.5212  -10.0368   17.0315 C   0  0  0  0  0  0  0  0  0  0  0  0
    0.2815  -10.2364   14.9103 C   0  0  0  0  0  0  0  0  0  0  0  0
  1  6  1  0
  1 21  1  0
  2  8  4  0
  2 23  4  0
  3 29  4  0
  3 32  4  0
  4 27  4  0
  4 33  4  0
  5  7  4  0
  5 27  4  0
  6 14  1  0
  6 20  1  0
  7 11  4  0
  7 24  4  0
  8 30  4  0
  9 10  1  0
  9 21  1  0
 10 12  1  0
 10 16  1  0
 11 17  4  0
 12 14  1  0
 13 17  4  0
 13 34  4  0
 15 16  1  0
 15 33  1  0
 18 27  1  0
 19 26  4  0
 19 31  4  0
 20 25  4  0
 20 29  4  0
 22 25  4  0
 22 31  4  0
 22 32  4  0
 23 26  4  0
 24 33  4  0
 24 34  4  0
 26 28  4  0
 28 30  4  0
 28 32  4  0
M  END
$$$$

 Created by Python create_sdf_string function

 34 60  0  0  0  0  0  0  0  0999 V2000
   11.0770   -3.1943   22.0921 N   0  0  0  0  0  0  0  0  0  0  0  0
   10.0818   -6.8318   19.3429 C   0  0  0  0  0  0  0  0  0  0  0  0
    1.6925  -10.6812   18.1485 N   0  0  0  0  0  0  0  0  0  0  0  0
    0.0317  -11.9988   17.9266 N   0  0  0  0  0  0  0  0  0  0  0  0
    7.0027   -7.3435   16.8922 N   0  0  0  0  0  0  0  0  0  0  0  0
   -0.1767  -11.8118   16.7962 C   0  0  0  0  0  0  0  0  0  0  0  0
   11.0471   -4.4638   22.2761 C   0  0  0  0  0  0  0  0  0  0  0  0
    5.3657   -8.9896   14.8671 N   0  0  0  0  0  0  0  0  0  0  0  0
    4.2492   -7.7897   15.8564 N   0  0  0  0  0  0  0  0  0  0  0  0
   -0.9055  -12.5419   15.9653 C   0  0  0  0  0  0  0  0  0  0  0  0
    4.7218   -7.5261   17.0565 C   0  0  0  0  0  0  0  0  0  0  0  0
   -0.6080  -10.8174   14.2713 N   0  0  0  0  0  0  0  0  0  0  0  0
    5.8887   -7.7621   17.2620 C   0  0  0  0  0  0  0  0  0  0  0  0
    2.6656   -8.5952   15.6291 C   0  0  0  0  0  0  0  0  0  0  0  0
   -1.2651  -11.9090   14.6758 C   0  0  0  0  0  0  0  0  0  0  0  0
    1.1829  -11.6649   20.2533 N   0  0  0  0  0  0  0  0  0  0  0  0
   10.8621   -3.0717   18.6162 C   0  0  0  0  0  0  0  0  0  0  0  0
    8.1137   -6.8257   17.4821 C   0  0  0  0  0  0  0  0  0  0  0  0
    6.5201   -9.0695   14.9292 C   0  0  0  0  0  0  0  0  0  0  0  0
    9.6813   -5.0692   17.9048 C   0  0  0  0  0  0  0  0  0  0  0  0
   11.1148   -2.6810   20.9807 N   0  0  0  0  0  0  0  0  0  0  0  0
    0.4323  -10.6175   16.2009 C   0  0  0  0  0  0  0  0  0  0  0  0
    8.9826   -5.6812   17.0168 C   0  0  0  0  0  0  0  0  0  0  0  0
   11.0298   -3.5409   19.8310 C   0  0  0  0  0  0  0  0  0  0  0  0
    0.9889  -11.3793   18.7712 C   0  0  0  0  0  0  0  0  0  0  0  0
   10.6185   -4.9256   20.0282 C   0  0  0  0  0  0  0  0  0  0  0  0
    9.0549   -7.8855   18.3987 C   0  0  0  0  0  0  0  0  0  0  0  0
   10.7832   -5.0174   21.0902 N   0  0  0  0  0  0  0  0  0  0  0  0
   10.0361   -3.8255   17.4908 C   0  0  0  0  0  0  0  0  0  0  0  0
    9.8365   -5.4930   19.0351 C   0  0  0  0  0  0  0  0  0  0  0  0
    1.3176  -10.2605   17.0110 C   0  0  0  0  0  0  0  0  0  0  0  0
    0.2173  -10.1639   14.7919 C   0  0  0  0  0  0  0  0  0  0  0  0
    7.3850   -7.8305   15.4976 He  0  0  0  0  0  0  0  0  0  0  0  0
    2.3211   -8.4854   16.6578 He  0  0  0  0  0  0  0  0  0  0  0  0
  1  7  4  0
  1 21  4  0
  2  3  4  0
  2 14  3  0
  2 22  1  0
  2 27  4  0
  2 30  4  0
  3 16  3  0
  3 22  1  0
  3 29  3  0
  3 31  4  0
  4  6  4  0
  4 25  4  0
  5  6  1  0
  5 11  1  0
  5 13  2  0
  5 18  1  0
  6 10  4  0
  6 22  4  0
  7 28  4  0
  8  9  1  0
  8 11  3  0
  8 19  1  0
  9 11  1  0
  9 14  1  0
  9 19  3  0
 10 11  3  0
 10 14  3  0
 10 15  4  0
 11 13  1  0
 11 15  1  0
 11 32  1  0
 12 15  4  0
 12 32  4  0
 14 20  1  0
 14 22  2  0
 15 30  2  0
 16 25  1  0
 16 27  3  0
 17 24  4  0
 17 27  1  0
 17 28  3  0
 17 29  4  0
 18 23  4  0
 18 27  4  0
 20 23  3  0
 20 29  4  0
 20 30  4  0
 21 24  4  0
 21 27  3  0
 22 31  4  0
 22 32  4  0
 23 24  1  0
 23 31  3  0
 24 26  4  0
 24 31  2  0
 25 30  4  0
 26 28  4  0
 26 30  4  0
 27 31  3  0
M  END
$$$$

 Created by Python create_sdf_string function

 34 39  0  0  0  0  0  0  0  0999 V2000
    7.2994   -7.9045   15.4708 C   0  0  0  0  0  0  0  0  0  0  0  0
   11.2241   -3.0918   22.1373 N   0  0  0  0  0  0  0  0  0  0  0  0
    9.8381   -6.9556   19.2040 C   0  0  0  0  0  0  0  0  0  0  0  0
    1.6889  -10.4092   18.2321 N   0  0  0  0  0  0  0  0  0  0  0  0
    0.1006  -12.0568   18.0177 N   0  0  0  0  0  0  0  0  0  0  0  0
    7.1065   -7.4693   16.8198 N   0  0  0  0  0  0  0  0  0  0  0  0
   -0.1322  -11.7014   16.7357 C   0  0  0  0  0  0  0  0  0  0  0  0
   11.0370   -4.4577   22.3629 C   0  0  0  0  0  0  0  0  0  0  0  0
    5.0992   -8.8823   14.8792 C   0  0  0  0  0  0  0  0  0  0  0  0
    4.2843   -7.9900   15.6900 N   0  0  0  0  0  0  0  0  0  0  0  0
   -1.0449  -12.4153   15.9517 C   0  0  0  0  0  0  0  0  0  0  0  0
    4.6445   -7.5952   17.0081 C   0  0  0  0  0  0  0  0  0  0  0  0
   -0.6762  -10.8777   14.1640 N   0  0  0  0  0  0  0  0  0  0  0  0
    5.9440   -7.6602   17.4376 C   0  0  0  0  0  0  0  0  0  0  0  0
    2.1079   -8.7410   16.6833 C   0  0  0  0  0  0  0  0  0  0  0  0
    2.9257   -8.5550   15.6211 C   0  0  0  0  0  0  0  0  0  0  0  0
   -1.2638  -11.9823   14.6554 C   0  0  0  0  0  0  0  0  0  0  0  0
    1.1455  -11.7151   20.0655 N   0  0  0  0  0  0  0  0  0  0  0  0
   10.7824   -2.9893   18.5564 C   0  0  0  0  0  0  0  0  0  0  0  0
    8.2846   -6.9341   17.3786 C   0  0  0  0  0  0  0  0  0  0  0  0
    6.4653   -9.0388   15.0812 C   0  0  0  0  0  0  0  0  0  0  0  0
    9.6945   -5.0206   17.8764 C   0  0  0  0  0  0  0  0  0  0  0  0
   11.2115   -2.6470   20.8810 N   0  0  0  0  0  0  0  0  0  0  0  0
    0.5245  -10.6307   16.2027 C   0  0  0  0  0  0  0  0  0  0  0  0
    8.7455   -5.7045   17.0594 C   0  0  0  0  0  0  0  0  0  0  0  0
   10.8618   -3.4761   19.8459 C   0  0  0  0  0  0  0  0  0  0  0  0
    0.9794  -11.3995   18.7476 C   0  0  0  0  0  0  0  0  0  0  0  0
   10.5794   -4.8100   20.0347 C   0  0  0  0  0  0  0  0  0  0  0  0
    8.9309   -7.6257   18.3653 C   0  0  0  0  0  0  0  0  0  0  0  0
   10.7701   -5.3028   21.3437 N   0  0  0  0  0  0  0  0  0  0  0  0
   10.1775   -3.7459   17.5935 C   0  0  0  0  0  0  0  0  0  0  0  0
   10.0878   -5.5978   19.0591 C   0  0  0  0  0  0  0  0  0  0  0  0
    1.4382   -9.9846   17.0321 C   0  0  0  0  0  0  0  0  0  0  0  0
    0.2067  -10.2136   14.9151 C   0  0  0  0  0  0  0  0  0  0  0  0
  1  6  1  0
  1 21  1  0
  2  8  4  0
  2 23  4  0
  3 29  4  0
  3 32  4  0
  4 27  4  0
  4 33  4  0
  5  7  4  0
  5 27  4  0
  6 14  1  0
  6 20  1  0
  7 11  4  0
  7 24  4  0
  8 30  4  0
  9 10  1  0
  9 21  1  0
 10 12  1  0
 10 16  1  0
 11 17  4  0
 12 14  1  0
 13 17  4  0
 13 34  4  0
 15 16  2  0
 15 33  1  0
 18 27  1  0
 19 26  4  0
 19 31  4  0
 20 25  4  0
 20 29  4  0
 22 25  4  0
 22 31  4  0
 22 32  4  0
 23 26  4  0
 24 33  4  0
 24 34  4  0
 26 28  4  0
 28 30  4  0
 28 32  4  0
M  END
$$$$

 Created by Python create_sdf_string function

 34 62  0  0  0  0  0  0  0  0999 V2000
    7.3238   -7.8797   15.6730 C   0  0  0  0  0  0  0  0  0  0  0  0
   11.2112   -3.1609   22.0363 N   0  0  0  0  0  0  0  0  0  0  0  0
    9.7633   -6.9208   19.4918 C   0  0  0  0  0  0  0  0  0  0  0  0
    1.6399  -10.5445   18.0802 N   0  0  0  0  0  0  0  0  0  0  0  0
    0.0597  -11.8976   18.0087 N   0  0  0  0  0  0  0  0  0  0  0  0
    7.1505   -7.3949   16.8863 N   0  0  0  0  0  0  0  0  0  0  0  0
   -0.0010  -11.7021   16.7480 C   0  0  0  0  0  0  0  0  0  0  0  0
   10.9290   -4.2036   22.4603 C   0  0  0  0  0  0  0  0  0  0  0  0
    5.1661   -8.8109   14.6318 C   0  0  0  0  0  0  0  0  0  0  0  0
   -0.9428  -12.5424   15.8903 C   0  0  0  0  0  0  0  0  0  0  0  0
    4.6382   -7.6510   16.9572 C   0  0  0  0  0  0  0  0  0  0  0  0
   -0.6428  -10.8636   14.0631 N   0  0  0  0  0  0  0  0  0  0  0  0
    5.8837   -7.8003   17.3479 C   0  0  0  0  0  0  0  0  0  0  0  0
    1.8295   -8.8042   16.6857 C   0  0  0  0  0  0  0  0  0  0  0  0
    2.8794   -8.7546   15.6657 C   0  0  0  0  0  0  0  0  0  0  0  0
   -1.1576  -11.8692   14.6147 C   0  0  0  0  0  0  0  0  0  0  0  0
    1.2727  -11.7081   19.9361 F   0  0  0  0  0  0  0  0  0  0  0  0
   10.7028   -2.8959   18.5223 C   0  0  0  0  0  0  0  0  0  0  0  0
    8.1579   -7.1507   17.5223 C   0  0  0  0  0  0  0  0  0  0  0  0
    6.4224   -9.1206   15.0260 C   0  0  0  0  0  0  0  0  0  0  0  0
    9.7059   -4.8236   17.9457 C   0  0  0  0  0  0  0  0  0  0  0  0
   11.1775   -2.5815   20.7162 N   0  0  0  0  0  0  0  0  0  0  0  0
    0.5151  -10.6543   16.0999 C   0  0  0  0  0  0  0  0  0  0  0  0
    8.7008   -5.6910   16.9685 C   0  0  0  0  0  0  0  0  0  0  0  0
   10.8797   -3.4383   19.8055 C   0  0  0  0  0  0  0  0  0  0  0  0
    0.9621  -11.6021   18.6045 C   0  0  0  0  0  0  0  0  0  0  0  0
   10.7692   -4.8355   20.0942 C   0  0  0  0  0  0  0  0  0  0  0  0
    8.8403   -7.5164   17.9995 C   0  0  0  0  0  0  0  0  0  0  0  0
   10.9778   -5.2661   21.4194 N   0  0  0  0  0  0  0  0  0  0  0  0
   10.3009   -3.7786   17.8052 C   0  0  0  0  0  0  0  0  0  0  0  0
    9.9472   -5.7122   18.9077 C   0  0  0  0  0  0  0  0  0  0  0  0
    1.2494   -9.7406   17.2070 C   0  0  0  0  0  0  0  0  0  0  0  0
    0.0740  -10.1132   14.9676 C   0  0  0  0  0  0  0  0  0  0  0  0
    4.2815   -8.3098   15.7949 He  0  0  0  0  0  0  0  0  0  0  0  0
  1  6  1  0
  1 20  1  0
  2  8  4  0
  2 21  2  0
  2 22  4  0
  2 32  1  0
  3  5  3  0
  3 12  1  0
  3 20  3  0
  3 27  4  0
  3 28  4  0
  3 31  4  0
  4  9  3  0
  4 13  2  0
  4 19  3  0
  4 26  4  0
  4 32  4  0
  5  7  4  0
  5 21  3  0
  5 25  1  0
  5 26  4  0
  5 30  2  0
  6 13  1  0
  6 19  1  0
  6 23  4  0
  7 10  1  0
  7 21  1  0
  8 12  4  0
  8 14  3  0
  8 29  4  0
  9 16  1  0
  9 25  1  0
  9 27  2  0
 10 16  4  0
 10 20  3  0
 11 13  1  0
 12 15  2  0
 12 16  4  0
 12 20  4  0
 12 23  2  0
 13 23  1  0
 14 15  2  0
 14 33  1  0
 15 22  2  0
 17 26  1  0
 18 25  4  0
 18 31  3  0
 19 24  4  0
 19 28  4  0
 20 30  3  0
 21 24  4  0
 21 30  4  0
 21 31  4  0
 22 25  4  0
 23 32  4  0
 23 33  4  0
 25 27  4  0
 25 28  2  0
 26 31  4  0
 26 32  2  0
 27 29  4  0
 27 31  4  0
M  END
$$$$

 Created by Python create_sdf_string function

 34 39  0  0  0  0  0  0  0  0999 V2000
    7.3216   -7.9730   15.5114 C   0  0  0  0  0  0  0  0  0  0  0  0
   11.2550   -2.9923   22.1248 N   0  0  0  0  0  0  0  0  0  0  0  0
    9.8199   -6.9431   19.2284 C   0  0  0  0  0  0  0  0  0  0  0  0
    1.5999  -10.3663   18.2080 N   0  0  0  0  0  0  0  0  0  0  0  0
    0.1201  -12.1119   17.9439 N   0  0  0  0  0  0  0  0  0  0  0  0
    7.1033   -7.4387   16.8173 N   0  0  0  0  0  0  0  0  0  0  0  0
   -0.1592  -11.7177   16.6888 C   0  0  0  0  0  0  0  0  0  0  0  0
   11.0726   -4.3550   22.3913 C   0  0  0  0  0  0  0  0  0  0  0  0
    5.0791   -8.7873   14.7599 C   0  0  0  0  0  0  0  0  0  0  0  0
    4.1810   -8.2960   15.8098 N   0  0  0  0  0  0  0  0  0  0  0  0
   -1.0090  -12.4759   15.8427 C   0  0  0  0  0  0  0  0  0  0  0  0
    4.6356   -7.6275   16.9628 C   0  0  0  0  0  0  0  0  0  0  0  0
   -0.7016  -10.8664   14.1181 N   0  0  0  0  0  0  0  0  0  0  0  0
    5.9442   -7.7763   17.5053 C   0  0  0  0  0  0  0  0  0  0  0  0
    1.9467   -8.7391   16.6137 C   0  0  0  0  0  0  0  0  0  0  0  0
    2.9391   -8.7200   15.6399 C   0  0  0  0  0  0  0  0  0  0  0  0
   -1.2207  -12.0140   14.5751 C   0  0  0  0  0  0  0  0  0  0  0  0
    1.2357  -11.8299   19.9433 N   0  0  0  0  0  0  0  0  0  0  0  0
   10.7890   -2.9856   18.5424 C   0  0  0  0  0  0  0  0  0  0  0  0
    8.2663   -6.9116   17.4121 C   0  0  0  0  0  0  0  0  0  0  0  0
    6.4404   -9.1173   15.1864 C   0  0  0  0  0  0  0  0  0  0  0  0
    9.6601   -5.0236   17.9157 C   0  0  0  0  0  0  0  0  0  0  0  0
   11.2404   -2.5769   20.8541 N   0  0  0  0  0  0  0  0  0  0  0  0
    0.4302  -10.5944   16.1884 C   0  0  0  0  0  0  0  0  0  0  0  0
    8.7507   -5.7085   17.0829 C   0  0  0  0  0  0  0  0  0  0  0  0
   10.8899   -3.4324   19.8457 C   0  0  0  0  0  0  0  0  0  0  0  0
    0.9688  -11.4453   18.7082 C   0  0  0  0  0  0  0  0  0  0  0  0
   10.5775   -4.7655   20.0786 C   0  0  0  0  0  0  0  0  0  0  0  0
    8.9040   -7.5832   18.4052 C   0  0  0  0  0  0  0  0  0  0  0  0
   10.8004   -5.2377   21.4101 N   0  0  0  0  0  0  0  0  0  0  0  0
   10.1253   -3.7510   17.6127 C   0  0  0  0  0  0  0  0  0  0  0  0
   10.0636   -5.5741   19.1005 C   0  0  0  0  0  0  0  0  0  0  0  0
    1.3284   -9.9576   17.0177 C   0  0  0  0  0  0  0  0  0  0  0  0
    0.1164  -10.1659   14.8995 C   0  0  0  0  0  0  0  0  0  0  0  0
  1  6  1  0
  1 21  1  0
  2  8  4  0
  2 23  4  0
  3 29  4  0
  3 32  4  0
  4 27  4  0
  4 33  4  0
  5  7  4  0
  5 27  4  0
  6 14  1  0
  6 20  1  0
  7 11  4  0
  7 24  4  0
  8 30  4  0
  9 10  1  0
  9 21  1  0
 10 12  1  0
 10 16  1  0
 11 17  4  0
 12 14  1  0
 13 17  4  0
 13 34  4  0
 15 16  2  0
 15 33  1  0
 18 27  1  0
 19 26  4  0
 19 31  4  0
 20 25  4  0
 20 29  4  0
 22 25  4  0
 22 31  4  0
 22 32  4  0
 23 26  4  0
 24 33  4  0
 24 34  4  0
 26 28  4  0
 28 30  4  0
 28 32  4  0
M  END
$$$$

 Created by Python create_sdf_string function

 34 68  0  0  0  0  0  0  0  0999 V2000
    7.4715   -8.0162   15.2804 C   0  0  0  0  0  0  0  0  0  0  0  0
   11.3095   -2.9024   22.0431 N   0  0  0  0  0  0  0  0  0  0  0  0
    9.7369   -6.9525   19.1844 C   0  0  0  0  0  0  0  0  0  0  0  0
    1.8077  -10.4603   18.2916 N   0  0  0  0  0  0  0  0  0  0  0  0
    0.2158  -12.2086   18.0836 N   0  0  0  0  0  0  0  0  0  0  0  0
    7.2064   -7.0851   16.8143 N   0  0  0  0  0  0  0  0  0  0  0  0
   -0.2215  -11.8605   16.8403 C   0  0  0  0  0  0  0  0  0  0  0  0
   11.0441   -4.4422   22.4069 C   0  0  0  0  0  0  0  0  0  0  0  0
    4.7787   -8.5772   14.7318 C   0  0  0  0  0  0  0  0  0  0  0  0
    4.2218   -8.3730   15.8497 C   0  0  0  0  0  0  0  0  0  0  0  0
   -0.9566  -12.6466   15.9620 C   0  0  0  0  0  0  0  0  0  0  0  0
    4.7782   -7.6975   16.8561 C   0  0  0  0  0  0  0  0  0  0  0  0
   -0.6914  -10.8208   14.2847 N   0  0  0  0  0  0  0  0  0  0  0  0
    6.0148   -7.6517   17.4196 C   0  0  0  0  0  0  0  0  0  0  0  0
    2.0921   -8.9090   16.8550 C   0  0  0  0  0  0  0  0  0  0  0  0
    2.9869   -8.6734   15.7447 C   0  0  0  0  0  0  0  0  0  0  0  0
   -1.3696  -11.8611   14.4673 C   0  0  0  0  0  0  0  0  0  0  0  0
    1.3078  -11.9964   20.0269 N   0  0  0  0  0  0  0  0  0  0  0  0
   10.8763   -3.1692   18.7214 C   0  0  0  0  0  0  0  0  0  0  0  0
    8.2938   -6.9108   17.4975 C   0  0  0  0  0  0  0  0  0  0  0  0
    6.2621   -9.1213   15.3583 C   0  0  0  0  0  0  0  0  0  0  0  0
    9.7664   -4.9949   17.9590 C   0  0  0  0  0  0  0  0  0  0  0  0
   11.1874   -2.3327   20.8194 N   0  0  0  0  0  0  0  0  0  0  0  0
    0.5047  -10.5245   16.2042 O   0  0  0  0  0  0  0  0  0  0  0  0
    8.8618   -5.7487   17.1038 C   0  0  0  0  0  0  0  0  0  0  0  0
   10.9439   -3.4580   19.9782 C   0  0  0  0  0  0  0  0  0  0  0  0
    1.0766  -11.2996   18.8007 C   0  0  0  0  0  0  0  0  0  0  0  0
   10.5255   -4.7232   19.9566 C   0  0  0  0  0  0  0  0  0  0  0  0
    9.0094   -7.7078   18.4883 C   0  0  0  0  0  0  0  0  0  0  0  0
   10.6968   -5.1388   21.5356 N   0  0  0  0  0  0  0  0  0  0  0  0
   10.1260   -3.6854   17.5769 C   0  0  0  0  0  0  0  0  0  0  0  0
   10.2235   -5.3461   18.8288 C   0  0  0  0  0  0  0  0  0  0  0  0
    0.9927  -10.0331   16.9860 C   0  0  0  0  0  0  0  0  0  0  0  0
    0.1737  -10.1832   15.0052 C   0  0  0  0  0  0  0  0  0  0  0  0
  1  6  1  0
  1 10  1  0
  1 20  2  0
  1 21  1  0
  1 22  2  0
  1 34  2  0
  2  6  3  0
  2  8  4  0
  2  9  4  0
  2 20  4  0
  2 23  4  0
  3 29  4  0
  4 17  3  0
  4 26  4  0
  4 27  4  0
  4 29  3  0
  4 34  3  0
  5  7  4  0
  5 27  3  0
  6 14  1  0
  6 20  1  0
  6 28  1  0
  7 10  4  0
  7 11  4  0
  7 24  4  0
  8 30  4  0
  9 10  1  0
  9 17  4  0
  9 21  1  0
  9 29  3  0
 10 16  1  0
 11 17  4  0
 11 18  2  0
 11 24  4  0
 11 25  1  0
 12 20  1  0
 12 28  3  0
 13 17  4  0
 13 32  2  0
 13 34  4  0
 15 16  2  0
 15 17  1  0
 15 33  1  0
 16 29  3  0
 17 21  3  0
 18 19  1  0
 18 22  1  0
 18 27  1  0
 19 26  4  0
 19 31  4  0
 20 21  3  0
 20 25  4  0
 20 29  4  0
 21 25  1  0
 22 25  4  0
 22 31  4  0
 22 32  4  0
 23 26  4  0
 24 33  4  0
 24 34  4  0
 25 33  4  0
 26 28  4  0
 26 30  2  0
 27 33  3  0
 28 30  4  0
 28 32  4  0
 28 33  2  0
 30 31  3  0
M  END
$$$$

 Created by Python create_sdf_string function

 34 39  0  0  0  0  0  0  0  0999 V2000
    7.3095   -7.9900   15.4631 C   0  0  0  0  0  0  0  0  0  0  0  0
   11.3107   -2.9581   22.1440 N   0  0  0  0  0  0  0  0  0  0  0  0
    9.8426   -6.9239   19.2473 C   0  0  0  0  0  0  0  0  0  0  0  0
    1.6114  -10.4240   18.3307 N   0  0  0  0  0  0  0  0  0  0  0  0
    0.1439  -12.1892   18.0068 N   0  0  0  0  0  0  0  0  0  0  0  0
    7.1746   -7.3667   16.7501 N   0  0  0  0  0  0  0  0  0  0  0  0
   -0.1459  -11.7750   16.7503 C   0  0  0  0  0  0  0  0  0  0  0  0
   11.0433   -4.3093   22.4034 C   0  0  0  0  0  0  0  0  0  0  0  0
    5.0212   -8.6459   14.7814 C   0  0  0  0  0  0  0  0  0  0  0  0
    4.1766   -8.2405   15.8806 N   0  0  0  0  0  0  0  0  0  0  0  0
   -1.0291  -12.4867   15.9370 C   0  0  0  0  0  0  0  0  0  0  0  0
    4.7517   -7.6156   16.9883 C   0  0  0  0  0  0  0  0  0  0  0  0
   -0.7335  -10.8491   14.2153 N   0  0  0  0  0  0  0  0  0  0  0  0
    5.9975   -7.5986   17.4787 C   0  0  0  0  0  0  0  0  0  0  0  0
    1.9913   -8.8014   16.7290 C   0  0  0  0  0  0  0  0  0  0  0  0
    2.9467   -8.6634   15.7774 C   0  0  0  0  0  0  0  0  0  0  0  0
   -1.2917  -11.9967   14.6638 C   0  0  0  0  0  0  0  0  0  0  0  0
    1.2857  -11.9670   20.0248 N   0  0  0  0  0  0  0  0  0  0  0  0
   10.7929   -2.9551   18.5993 C   0  0  0  0  0  0  0  0  0  0  0  0
    8.3365   -6.8701   17.3651 C   0  0  0  0  0  0  0  0  0  0  0  0
    6.3501   -9.1042   15.1756 C   0  0  0  0  0  0  0  0  0  0  0  0
    9.7227   -5.0014   17.9294 C   0  0  0  0  0  0  0  0  0  0  0  0
   11.2700   -2.5321   20.8727 N   0  0  0  0  0  0  0  0  0  0  0  0
    0.4529  -10.6494   16.2736 C   0  0  0  0  0  0  0  0  0  0  0  0
    8.8477   -5.6903   17.0532 C   0  0  0  0  0  0  0  0  0  0  0  0
   10.8953   -3.4004   19.8661 C   0  0  0  0  0  0  0  0  0  0  0  0
    1.0078  -11.5330   18.7698 C   0  0  0  0  0  0  0  0  0  0  0  0
   10.5678   -4.7253   20.0955 C   0  0  0  0  0  0  0  0  0  0  0  0
    8.9391   -7.5788   18.3815 C   0  0  0  0  0  0  0  0  0  0  0  0
   10.7354   -5.1899   21.4148 N   0  0  0  0  0  0  0  0  0  0  0  0
   10.2278   -3.7424   17.6320 C   0  0  0  0  0  0  0  0  0  0  0  0
   10.0750   -5.5330   19.1145 C   0  0  0  0  0  0  0  0  0  0  0  0
    1.3543  -10.0051   17.1184 C   0  0  0  0  0  0  0  0  0  0  0  0
    0.1119  -10.1893   15.0056 C   0  0  0  0  0  0  0  0  0  0  0  0
  1  6  1  0
  1 21  1  0
  2  8  4  0
  2 23  4  0
  3 29  4  0
  3 32  4  0
  4 27  4  0
  4 33  4  0
  5  7  4  0
  5 27  4  0
  6 14  1  0
  6 20  1  0
  7 11  4  0
  7 24  4  0
  8 30  4  0
  9 10  1  0
  9 21  1  0
 10 12  1  0
 10 16  1  0
 11 17  4  0
 12 14  1  0
 13 17  4  0
 13 34  4  0
 15 16  2  0
 15 33  1  0
 18 27  1  0
 19 26  4  0
 19 31  4  0
 20 25  4  0
 20 29  4  0
 22 25  4  0
 22 31  4  0
 22 32  4  0
 23 26  4  0
 24 33  4  0
 24 34  4  0
 26 28  4  0
 28 30  4  0
 28 32  4  0
M  END
$$$$

 Created by Python create_sdf_string function

 34 44  0  0  0  0  0  0  0  0999 V2000
    7.2896   -7.9525   15.5089 C   0  0  0  0  0  0  0  0  0  0  0  0
    9.8808   -6.8822   19.1399 C   0  0  0  0  0  0  0  0  0  0  0  0
    1.4549  -10.4361   18.3400 S   0  0  0  0  0  0  0  0  0  0  0  0
    0.2465  -12.3066   18.1268 N   0  0  0  0  0  0  0  0  0  0  0  0
    7.1240   -7.3897   16.8215 N   0  0  0  0  0  0  0  0  0  0  0  0
   -0.1391  -11.7610   16.8464 C   0  0  0  0  0  0  0  0  0  0  0  0
   11.0167   -4.3300   22.4685 C   0  0  0  0  0  0  0  0  0  0  0  0
    5.2655   -8.6287   14.8851 C   0  0  0  0  0  0  0  0  0  0  0  0
    4.3916   -8.0763   16.0184 N   0  0  0  0  0  0  0  0  0  0  0  0
   -1.1697  -12.4609   15.8447 P   0  0  0  0  0  0  0  0  0  0  0  0
    4.4697   -7.6166   16.7044 C   0  0  0  0  0  0  0  0  0  0  0  0
   -0.8892  -10.7822   14.1241 N   0  0  0  0  0  0  0  0  0  0  0  0
    6.2328   -7.9357   17.5559 C   0  0  0  0  0  0  0  0  0  0  0  0
    2.0533   -8.4990   16.6819 C   0  0  0  0  0  0  0  0  0  0  0  0
    3.0432   -8.7355   15.8486 C   0  0  0  0  0  0  0  0  0  0  0  0
   -1.1837  -11.9954   14.5737 C   0  0  0  0  0  0  0  0  0  0  0  0
    1.0675  -12.2308   19.9722 N   0  0  0  0  0  0  0  0  0  0  0  0
   10.8782   -2.9015   18.6253 C   0  0  0  0  0  0  0  0  0  0  0  0
    8.1571   -6.8268   17.3591 C   0  0  0  0  0  0  0  0  0  0  0  0
    6.5254   -9.1713   15.3428 C   0  0  0  0  0  0  0  0  0  0  0  0
    9.7014   -4.9633   18.0066 C   0  0  0  0  0  0  0  0  0  0  0  0
   11.2928   -2.5562   21.1215 N   0  0  0  0  0  0  0  0  0  0  0  0
    0.5044  -10.5154   16.3327 C   0  0  0  0  0  0  0  0  0  0  0  0
    8.9687   -5.6285   17.1105 C   0  0  0  0  0  0  0  0  0  0  0  0
   10.6950   -3.4187   19.6498 C   0  0  0  0  0  0  0  0  0  0  0  0
    0.9896  -11.4960   18.7793 C   0  0  0  0  0  0  0  0  0  0  0  0
   10.6138   -4.7192   20.1037 C   0  0  0  0  0  0  0  0  0  0  0  0
    8.9624   -7.5115   18.2532 C   0  0  0  0  0  0  0  0  0  0  0  0
   10.5908   -5.4325   21.4369 N   0  0  0  0  0  0  0  0  0  0  0  0
   10.2406   -3.6935   17.7183 F   0  0  0  0  0  0  0  0  0  0  0  0
    9.9970   -5.4987   18.9280 F   0  0  0  0  0  0  0  0  0  0  0  0
    1.5454   -9.8205   17.1924 C   0  0  0  0  0  0  0  0  0  0  0  0
    0.0380  -10.1377   15.0160 C   0  0  0  0  0  0  0  0  0  0  0  0
   11.2985   -2.9299   22.1881 He  0  0  0  0  0  0  0  0  0  0  0  0
  1  3  4  0
  1 15  3  0
  1 20  1  0
  2 18  3  0
  2 22  4  0
  2 24  1  0
  3 26  4  0
  4  6  4  0
  4 26  4  0
  5  9  4  0
  5 13  1  0
  5 19  1  0
  6 10  4  0
  6 23  4  0
  6 33  4  0
  7 29  4  0
  7 30  2  0
  8  9  1  0
  8 20  1  0
  8 26  3  0
  9 11  1  0
  9 15  1  0
  9 30  4  0
 10 16  4  0
 11 13  1  0
 11 25  3  0
 12 16  4  0
 12 33  4  0
 14 15  2  0
 14 20  3  0
 14 32  1  0
 15 30  2  0
 17 26  1  0
 18 25  4  0
 18 30  4  0
 19 24  4  0
 19 28  4  0
 21 24  4  0
 21 30  4  0
 22 25  4  0
 23 32  4  0
 23 33  4  0
 27 29  2  0
 27 31  4  0
M  END
$$$$

 Created by Python create_sdf_string function

 34 39  0  0  0  0  0  0  0  0999 V2000
    7.3840   -7.9791   15.5227 C   0  0  0  0  0  0  0  0  0  0  0  0
   11.2923   -3.0340   22.2207 C   0  0  0  0  0  0  0  0  0  0  0  0
    9.8361   -6.8852   19.1890 C   0  0  0  0  0  0  0  0  0  0  0  0
    1.5869  -10.4115   18.3649 N   0  0  0  0  0  0  0  0  0  0  0  0
    0.1266  -12.1898   17.9740 N   0  0  0  0  0  0  0  0  0  0  0  0
    7.1532   -7.3269   16.7866 N   0  0  0  0  0  0  0  0  0  0  0  0
   -0.1383  -11.7382   16.7391 C   0  0  0  0  0  0  0  0  0  0  0  0
   11.0136   -4.3903   22.4465 C   0  0  0  0  0  0  0  0  0  0  0  0
    5.1261   -8.7007   14.8447 C   0  0  0  0  0  0  0  0  0  0  0  0
    4.2541   -8.2161   15.8831 N   0  0  0  0  0  0  0  0  0  0  0  0
   -1.0123  -12.4570   15.9011 C   0  0  0  0  0  0  0  0  0  0  0  0
    4.7366   -7.5490   16.9836 C   0  0  0  0  0  0  0  0  0  0  0  0
   -0.7547  -10.8111   14.2332 N   0  0  0  0  0  0  0  0  0  0  0  0
    6.0422   -7.8123   17.5424 C   0  0  0  0  0  0  0  0  0  0  0  0
    2.0335   -8.7077   16.7211 C   0  0  0  0  0  0  0  0  0  0  0  0
    3.0412   -8.7002   15.7744 C   0  0  0  0  0  0  0  0  0  0  0  0
   -1.3134  -11.9687   14.6478 C   0  0  0  0  0  0  0  0  0  0  0  0
    1.1424  -12.1152   20.0119 N   0  0  0  0  0  0  0  0  0  0  0  0
   10.7873   -2.9350   18.6292 C   0  0  0  0  0  0  0  0  0  0  0  0
    8.3041   -6.8232   17.3691 C   0  0  0  0  0  0  0  0  0  0  0  0
    6.4764   -9.1378   15.2500 C   0  0  0  0  0  0  0  0  0  0  0  0
    9.7046   -4.9513   17.9188 C   0  0  0  0  0  0  0  0  0  0  0  0
   11.2472   -2.5755   20.9449 N   0  0  0  0  0  0  0  0  0  0  0  0
    0.4411  -10.5791   16.2855 C   0  0  0  0  0  0  0  0  0  0  0  0
    8.8063   -5.6031   17.0607 C   0  0  0  0  0  0  0  0  0  0  0  0
   10.8816   -3.4060   19.9083 C   0  0  0  0  0  0  0  0  0  0  0  0
    0.9546  -11.5758   18.7943 C   0  0  0  0  0  0  0  0  0  0  0  0
   10.5393   -4.7290   20.0954 C   0  0  0  0  0  0  0  0  0  0  0  0
    8.9490   -7.5281   18.3453 C   0  0  0  0  0  0  0  0  0  0  0  0
   10.6770   -5.2483   21.4260 N   0  0  0  0  0  0  0  0  0  0  0  0
   10.1879   -3.6928   17.6623 C   0  0  0  0  0  0  0  0  0  0  0  0
   10.0624   -5.4956   19.0848 C   0  0  0  0  0  0  0  0  0  0  0  0
    1.3390   -9.9407   17.1135 C   0  0  0  0  0  0  0  0  0  0  0  0
    0.0721  -10.1316   15.0079 C   0  0  0  0  0  0  0  0  0  0  0  0
  1  6  1  0
  1 21  1  0
  2  8  4  0
  2 23  4  0
  3 29  4  0
  3 32  4  0
  4 27  4  0
  4 33  4  0
  5  7  4  0
  5 27  4  0
  6 14  1  0
  6 20  1  0
  7 11  4  0
  7 24  4  0
  8 30  4  0
  9 10  1  0
  9 21  1  0
 10 12  1  0
 10 16  1  0
 11 17  4  0
 12 14  1  0
 13 17  4  0
 13 34  4  0
 15 16  2  0
 15 33  1  0
 18 27  1  0
 19 26  4  0
 19 31  4  0
 20 25  4  0
 20 29  4  0
 22 25  4  0
 22 31  4  0
 22 32  4  0
 23 26  4  0
 24 33  4  0
 24 34  4  0
 26 28  4  0
 28 30  4  0
 28 32  4  0
M  END
$$$$

 Created by Python create_sdf_string function

 34 49  0  0  0  0  0  0  0  0999 V2000
    7.4656   -7.9565   15.5989 C   0  0  0  0  0  0  0  0  0  0  0  0
   11.3513   -3.1144   22.2789 C   0  0  0  0  0  0  0  0  0  0  0  0
    9.6472   -6.9623   19.2055 C   0  0  0  0  0  0  0  0  0  0  0  0
    1.5374  -10.4908   18.2129 N   0  0  0  0  0  0  0  0  0  0  0  0
    0.1050  -12.3321   17.8896 N   0  0  0  0  0  0  0  0  0  0  0  0
    7.3112   -7.4242   16.8029 N   0  0  0  0  0  0  0  0  0  0  0  0
   -0.1508  -11.7624   16.7129 C   0  0  0  0  0  0  0  0  0  0  0  0
   10.9859   -4.4012   22.3979 C   0  0  0  0  0  0  0  0  0  0  0  0
    4.9848   -8.8450   14.8429 C   0  0  0  0  0  0  0  0  0  0  0  0
    4.2477   -8.1997   15.8694 N   0  0  0  0  0  0  0  0  0  0  0  0
   -1.0758  -12.4294   15.8947 C   0  0  0  0  0  0  0  0  0  0  0  0
    4.8725   -7.6112   16.7999 C   0  0  0  0  0  0  0  0  0  0  0  0
   -0.7112  -10.8050   14.2255 N   0  0  0  0  0  0  0  0  0  0  0  0
    5.8747   -7.7306   17.6877 C   0  0  0  0  0  0  0  0  0  0  0  0
    2.1290   -8.6871   16.7810 C   0  0  0  0  0  0  0  0  0  0  0  0
    3.2414   -8.7418   15.7445 C   0  0  0  0  0  0  0  0  0  0  0  0
   -1.2423  -11.9586   14.6821 C   0  0  0  0  0  0  0  0  0  0  0  0
    1.4922  -12.0805   20.1913 N   0  0  0  0  0  0  0  0  0  0  0  0
   10.9512   -2.9585   18.7230 C   0  0  0  0  0  0  0  0  0  0  0  0
    8.3542   -6.9670   17.2825 C   0  0  0  0  0  0  0  0  0  0  0  0
    6.4672   -9.2665   15.1471 C   0  0  0  0  0  0  0  0  0  0  0  0
   11.4013   -2.4819   20.8912 N   0  0  0  0  0  0  0  0  0  0  0  0
    0.3439  -10.5575   16.3273 C   0  0  0  0  0  0  0  0  0  0  0  0
    8.6451   -5.5314   17.1190 C   0  0  0  0  0  0  0  0  0  0  0  0
   10.7899   -3.4278   19.9519 C   0  0  0  0  0  0  0  0  0  0  0  0
    1.0568  -11.3722   18.6548 C   0  0  0  0  0  0  0  0  0  0  0  0
   10.4959   -5.0417   20.0306 C   0  0  0  0  0  0  0  0  0  0  0  0
    8.9296   -7.4865   18.4133 C   0  0  0  0  0  0  0  0  0  0  0  0
   10.8902   -5.2633   21.2849 N   0  0  0  0  0  0  0  0  0  0  0  0
   10.2444   -3.6240   17.7383 C   0  0  0  0  0  0  0  0  0  0  0  0
    9.9046   -5.4328   19.2120 C   0  0  0  0  0  0  0  0  0  0  0  0
    1.3238  -10.1599   17.1179 C   0  0  0  0  0  0  0  0  0  0  0  0
    0.1040  -10.1211   15.1455 C   0  0  0  0  0  0  0  0  0  0  0  0
    9.6443   -4.9414   18.0011 He  0  0  0  0  0  0  0  0  0  0  0  0
  1  6  1  0
  1 11  3  0
  2  8  4  0
  2 22  4  0
  3  7  2  0
  3 28  4  0
  3 31  4  0
  4 24  3  0
  4 32  4  0
  5  7  4  0
  5 26  4  0
  5 28  2  0
  6 14  1  0
  6 16  4  0
  6 20  1  0
  7 23  4  0
  7 30  2  0
  7 31  2  0
  8 13  4  0
  9 27  2  0
 10 12  1  0
 10 24  1  0
 10 25  2  0
 11 17  4  0
 11 31  3  0
 12 14  1  0
 12 24  4  0
 13 17  4  0
 13 33  4  0
 14 17  1  0
 14 29  3  0
 15 16  2  0
 15 32  1  0
 16 20  3  0
 18 26  1  0
 19 25  4  0
 19 30  4  0
 20 24  4  0
 20 28  4  0
 20 29  2  0
 21 26  3  0
 22 25  4  0
 23 31  3  0
 23 32  4  0
 23 33  4  0
 25 27  4  0
 26 29  2  0
 27 29  4  0
 27 31  4  0
M  END
$$$$

 Created by Python create_sdf_string function

 34 39  0  0  0  0  0  0  0  0999 V2000
    7.3535   -8.0509   15.5121 C   0  0  0  0  0  0  0  0  0  0  0  0
   11.3858   -3.0695   22.2397 C   0  0  0  0  0  0  0  0  0  0  0  0
    9.7448   -6.8845   19.2722 C   0  0  0  0  0  0  0  0  0  0  0  0
    1.6176  -10.4404   18.2738 N   0  0  0  0  0  0  0  0  0  0  0  0
    0.1379  -12.2011   17.9625 N   0  0  0  0  0  0  0  0  0  0  0  0
    7.1914   -7.4185   16.7493 N   0  0  0  0  0  0  0  0  0  0  0  0
   -0.1554  -11.7496   16.7145 C   0  0  0  0  0  0  0  0  0  0  0  0
   11.1218   -4.4283   22.4411 C   0  0  0  0  0  0  0  0  0  0  0  0
    5.0792   -8.8385   14.8226 C   0  0  0  0  0  0  0  0  0  0  0  0
    4.2739   -8.2516   15.8531 N   0  0  0  0  0  0  0  0  0  0  0  0
   -1.0683  -12.4566   15.8983 C   0  0  0  0  0  0  0  0  0  0  0  0
    4.7778   -7.5004   16.8767 C   0  0  0  0  0  0  0  0  0  0  0  0
   -0.7714  -10.7989   14.2329 N   0  0  0  0  0  0  0  0  0  0  0  0
    5.9868   -7.7003   17.5226 C   0  0  0  0  0  0  0  0  0  0  0  0
    2.0738   -8.8022   16.6997 C   0  0  0  0  0  0  0  0  0  0  0  0
    3.0507   -8.7717   15.7682 C   0  0  0  0  0  0  0  0  0  0  0  0
   -1.3232  -11.9574   14.6553 C   0  0  0  0  0  0  0  0  0  0  0  0
    1.3423  -12.0693   20.0120 N   0  0  0  0  0  0  0  0  0  0  0  0
   10.8180   -2.9421   18.6596 C   0  0  0  0  0  0  0  0  0  0  0  0
    8.2843   -6.8551   17.3894 C   0  0  0  0  0  0  0  0  0  0  0  0
    6.4574   -9.2076   15.2039 C   0  0  0  0  0  0  0  0  0  0  0  0
    9.6492   -4.9379   17.9795 C   0  0  0  0  0  0  0  0  0  0  0  0
   11.3311   -2.6079   20.9618 N   0  0  0  0  0  0  0  0  0  0  0  0
    0.4402  -10.6183   16.2509 C   0  0  0  0  0  0  0  0  0  0  0  0
    8.7541   -5.6044   17.1207 C   0  0  0  0  0  0  0  0  0  0  0  0
   10.9318   -3.4300   19.9331 C   0  0  0  0  0  0  0  0  0  0  0  0
    1.0236  -11.5612   18.7039 C   0  0  0  0  0  0  0  0  0  0  0  0
   10.5570   -4.7436   20.1080 C   0  0  0  0  0  0  0  0  0  0  0  0
    8.9051   -7.5359   18.3915 C   0  0  0  0  0  0  0  0  0  0  0  0
   10.7226   -5.2624   21.4178 N   0  0  0  0  0  0  0  0  0  0  0  0
   10.1359   -3.6958   17.7127 C   0  0  0  0  0  0  0  0  0  0  0  0
   10.0060   -5.5080   19.1285 C   0  0  0  0  0  0  0  0  0  0  0  0
    1.3561  -10.0028   17.0842 C   0  0  0  0  0  0  0  0  0  0  0  0
    0.0758  -10.1330   15.0019 C   0  0  0  0  0  0  0  0  0  0  0  0
  1  6  1  0
  1 21  1  0
  2  8  4  0
  2 23  4  0
  3 29  4  0
  3 32  4  0
  4 27  4  0
  4 33  4  0
  5  7  4  0
  5 27  4  0
  6 14  1  0
  6 20  1  0
  7 11  4  0
  7 24  4  0
  8 30  4  0
  9 10  1  0
  9 21  1  0
 10 12  1  0
 10 16  1  0
 11 17  4  0
 12 14  1  0
 13 17  4  0
 13 34  4  0
 15 16  2  0
 15 33  1  0
 18 27  1  0
 19 26  4  0
 19 31  4  0
 20 25  4  0
 20 29  4  0
 22 25  4  0
 22 31  4  0
 22 32  4  0
 23 26  4  0
 24 33  4  0
 24 34  4  0
 26 28  4  0
 28 30  4  0
 28 32  4  0
M  END
$$$$

 Created by Python create_sdf_string function

 34 57  0  0  0  0  0  0  0  0999 V2000
    7.3497   -8.0394   15.6330 C   0  0  0  0  0  0  0  0  0  0  0  0
   11.4447   -3.0528   22.1411 C   0  0  0  0  0  0  0  0  0  0  0  0
    9.6938   -6.8446   19.1843 C   0  0  0  0  0  0  0  0  0  0  0  0
    1.6384  -10.4842   18.3330 N   0  0  0  0  0  0  0  0  0  0  0  0
    0.2707  -12.1485   17.9822 N   0  0  0  0  0  0  0  0  0  0  0  0
    6.9593   -7.3266   16.8624 N   0  0  0  0  0  0  0  0  0  0  0  0
   -0.3039  -11.7132   16.6823 C   0  0  0  0  0  0  0  0  0  0  0  0
   11.1848   -4.5126   22.5522 C   0  0  0  0  0  0  0  0  0  0  0  0
    5.2409   -8.8112   14.9544 C   0  0  0  0  0  0  0  0  0  0  0  0
   -1.1574  -12.4783   15.8969 C   0  0  0  0  0  0  0  0  0  0  0  0
    4.7072   -7.3825   17.0059 C   0  0  0  0  0  0  0  0  0  0  0  0
   -0.7534  -10.8668   14.1164 N   0  0  0  0  0  0  0  0  0  0  0  0
    5.9360   -7.7153   17.4533 C   0  0  0  0  0  0  0  0  0  0  0  0
    2.1059   -8.9363   16.7644 C   0  0  0  0  0  0  0  0  0  0  0  0
    3.0902   -8.9262   15.8814 C   0  0  0  0  0  0  0  0  0  0  0  0
   -1.3088  -12.0105   14.5531 C   0  0  0  0  0  0  0  0  0  0  0  0
    1.2785  -11.9519   20.1498 N   0  0  0  0  0  0  0  0  0  0  0  0
   10.8558   -2.8823   18.5789 C   0  0  0  0  0  0  0  0  0  0  0  0
    8.3269   -6.9099   17.3485 C   0  0  0  0  0  0  0  0  0  0  0  0
    6.3962   -9.1019   15.1509 C   0  0  0  0  0  0  0  0  0  0  0  0
    9.7634   -5.0184   17.9826 C   0  0  0  0  0  0  0  0  0  0  0  0
   11.3875   -2.6175   21.0526 N   0  0  0  0  0  0  0  0  0  0  0  0
    0.4269  -10.5229   16.1630 C   0  0  0  0  0  0  0  0  0  0  0  0
    8.8018   -5.6125   17.1104 C   0  0  0  0  0  0  0  0  0  0  0  0
   10.9490   -3.4280   19.8211 C   0  0  0  0  0  0  0  0  0  0  0  0
    0.9407  -11.4824   18.8096 C   0  0  0  0  0  0  0  0  0  0  0  0
   10.5559   -4.8281   20.0107 C   0  0  0  0  0  0  0  0  0  0  0  0
    8.9007   -7.3165   18.4638 C   0  0  0  0  0  0  0  0  0  0  0  0
   10.6895   -5.2399   21.3768 N   0  0  0  0  0  0  0  0  0  0  0  0
   10.1096   -5.5770   18.9005 C   0  0  0  0  0  0  0  0  0  0  0  0
    1.3876   -9.7925   17.0216 C   0  0  0  0  0  0  0  0  0  0  0  0
    0.0989  -10.2952   15.0283 C   0  0  0  0  0  0  0  0  0  0  0  0
    4.4219   -8.2834   15.9025 He  0  0  0  0  0  0  0  0  0  0  0  0
   10.2230   -3.6757   17.8010 He  0  0  0  0  0  0  0  0  0  0  0  0
  1  6  1  0
  1 11  3  0
  1 20  1  0
  1 21  4  0
  2  8  4  0
  2 22  4  0
  2 28  1  0
  3 28  4  0
  3 30  4  0
  4  7  2  0
  4 11  2  0
  4 19  3  0
  4 26  4  0
  4 31  4  0
  5  7  4  0
  5 26  4  0
  6  7  1  0
  6  9  1  0
  6 13  1  0
  6 15  2  0
  6 19  1  0
  6 28  2  0
  7 10  4  0
  7 11  3  0
  7 23  4  0
  8 29  4  0
  8 31  4  0
  9 20  1  0
  9 24  1  0
 10 11  2  0
 10 31  1  0
 11 13  1  0
 11 16  3  0
 11 17  1  0
 12 16  4  0
 12 32  4  0
 14 15  2  0
 14 16  3  0
 14 19  2  0
 14 31  1  0
 17 26  1  0
 18 22  3  0
 18 25  4  0
 18 30  3  0
 19 20  1  0
 19 24  4  0
 19 28  4  0
 20 24  4  0
 20 27  3  0
 21 24  4  0
 21 30  4  0
 22 25  4  0
 23 31  4  0
 23 32  4  0
 25 27  4  0
 27 29  1  0
 27 30  4  0
M  END
$$$$

 Created by Python create_sdf_string function

 34 39  0  0  0  0  0  0  0  0999 V2000
    7.3687   -8.0388   15.5767 C   0  0  0  0  0  0  0  0  0  0  0  0
   11.4749   -3.0834   22.1889 C   0  0  0  0  0  0  0  0  0  0  0  0
    9.7750   -6.8636   19.2531 C   0  0  0  0  0  0  0  0  0  0  0  0
    1.5850  -10.4185   18.2874 N   0  0  0  0  0  0  0  0  0  0  0  0
    0.0885  -12.1427   17.9878 N   0  0  0  0  0  0  0  0  0  0  0  0
    7.1144   -7.3270   16.7835 N   0  0  0  0  0  0  0  0  0  0  0  0
   -0.1942  -11.7468   16.7185 C   0  0  0  0  0  0  0  0  0  0  0  0
   11.1517   -4.4493   22.4270 C   0  0  0  0  0  0  0  0  0  0  0  0
    5.1314   -8.7884   14.8451 C   0  0  0  0  0  0  0  0  0  0  0  0
    4.3063   -8.2671   15.8682 N   0  0  0  0  0  0  0  0  0  0  0  0
   -1.1090  -12.4574   15.9190 C   0  0  0  0  0  0  0  0  0  0  0  0
    4.6995   -7.4576   16.9583 C   0  0  0  0  0  0  0  0  0  0  0  0
   -0.7501  -10.8912   14.1474 N   0  0  0  0  0  0  0  0  0  0  0  0
    5.9898   -7.6704   17.5705 C   0  0  0  0  0  0  0  0  0  0  0  0
    2.0881   -8.8490   16.6785 C   0  0  0  0  0  0  0  0  0  0  0  0
    3.1057   -8.8328   15.8389 C   0  0  0  0  0  0  0  0  0  0  0  0
   -1.3462  -11.9992   14.6354 C   0  0  0  0  0  0  0  0  0  0  0  0
    1.2108  -11.9507   20.0109 N   0  0  0  0  0  0  0  0  0  0  0  0
   10.8179   -2.9359   18.6311 C   0  0  0  0  0  0  0  0  0  0  0  0
    8.2685   -6.8077   17.3999 C   0  0  0  0  0  0  0  0  0  0  0  0
    6.4897   -9.1701   15.2084 C   0  0  0  0  0  0  0  0  0  0  0  0
    9.6948   -4.9392   17.9308 C   0  0  0  0  0  0  0  0  0  0  0  0
   11.3923   -2.6153   20.9374 N   0  0  0  0  0  0  0  0  0  0  0  0
    0.4353  -10.6367   16.2219 C   0  0  0  0  0  0  0  0  0  0  0  0
    8.8155   -5.6051   17.0712 C   0  0  0  0  0  0  0  0  0  0  0  0
   10.9585   -3.4199   19.9166 C   0  0  0  0  0  0  0  0  0  0  0  0
    0.9529  -11.5139   18.7451 C   0  0  0  0  0  0  0  0  0  0  0  0
   10.5879   -4.7449   20.0859 C   0  0  0  0  0  0  0  0  0  0  0  0
    8.8644   -7.4778   18.4113 C   0  0  0  0  0  0  0  0  0  0  0  0
   10.7697   -5.2781   21.4097 N   0  0  0  0  0  0  0  0  0  0  0  0
   10.1986   -3.6798   17.6475 C   0  0  0  0  0  0  0  0  0  0  0  0
   10.0549   -5.4922   19.1163 C   0  0  0  0  0  0  0  0  0  0  0  0
    1.3548  -10.0081   17.0666 C   0  0  0  0  0  0  0  0  0  0  0  0
    0.1012  -10.2178   14.9471 C   0  0  0  0  0  0  0  0  0  0  0  0
  1  6  1  0
  1 21  1  0
  2  8  4  0
  2 23  4  0
  3 29  4  0
  3 32  4  0
  4 27  4  0
  4 33  4  0
  5  7  4  0
  5 27  4  0
  6 14  1  0
  6 20  1  0
  7 11  4  0
  7 24  4  0
  8 30  4  0
  9 10  1  0
  9 21  1  0
 10 12  1  0
 10 16  1  0
 11 17  4  0
 12 14  1  0
 13 17  4  0
 13 34  4  0
 15 16  2  0
 15 33  1  0
 18 27  1  0
 19 26  4  0
 19 31  4  0
 20 25  4  0
 20 29  4  0
 22 25  4  0
 22 31  4  0
 22 32  4  0
 23 26  4  0
 24 33  4  0
 24 34  4  0
 26 28  4  0
 28 30  4  0
 28 32  4  0
M  END
$$$$

 Created by Python create_sdf_string function

 34 49  0  0  0  0  0  0  0  0999 V2000
    7.4856   -8.1855   15.4574 C   0  0  0  0  0  0  0  0  0  0  0  0
   11.4475   -3.1444   22.1854 C   0  0  0  0  0  0  0  0  0  0  0  0
    9.9940   -6.9876   19.2376 C   0  0  0  0  0  0  0  0  0  0  0  0
    1.4738  -10.2205   18.3327 N   0  0  0  0  0  0  0  0  0  0  0  0
    0.2169  -12.1029   17.9426 N   0  0  0  0  0  0  0  0  0  0  0  0
    7.1754   -7.2822   16.7116 N   0  0  0  0  0  0  0  0  0  0  0  0
   -0.0718  -11.6642   16.7093 C   0  0  0  0  0  0  0  0  0  0  0  0
   11.2133   -4.5419   22.4128 C   0  0  0  0  0  0  0  0  0  0  0  0
    5.0501   -8.8289   14.7808 C   0  0  0  0  0  0  0  0  0  0  0  0
    4.3443   -8.2736   16.0063 N   0  0  0  0  0  0  0  0  0  0  0  0
   -1.2025  -12.3538   16.0040 C   0  0  0  0  0  0  0  0  0  0  0  0
    4.7443   -7.4348   16.8479 B   0  0  0  0  0  0  0  0  0  0  0  0
   -0.8413  -10.9630   14.3045 N   0  0  0  0  0  0  0  0  0  0  0  0
    6.0244   -7.5761   17.4908 F   0  0  0  0  0  0  0  0  0  0  0  0
    2.0820   -8.8932   16.6326 C   0  0  0  0  0  0  0  0  0  0  0  0
    3.1056   -8.9793   15.8220 C   0  0  0  0  0  0  0  0  0  0  0  0
   -1.3917  -12.0663   14.6538 C   0  0  0  0  0  0  0  0  0  0  0  0
    1.1487  -11.8942   19.9005 N   0  0  0  0  0  0  0  0  0  0  0  0
   10.8857   -3.0357   18.5964 C   0  0  0  0  0  0  0  0  0  0  0  0
    8.2321   -6.9827   17.4195 C   0  0  0  0  0  0  0  0  0  0  0  0
    6.5434   -9.3245   15.1938 C   0  0  0  0  0  0  0  0  0  0  0  0
    9.5810   -4.8356   17.8808 C   0  0  0  0  0  0  0  0  0  0  0  0
   11.5448   -2.4922   20.9385 N   0  0  0  0  0  0  0  0  0  0  0  0
    8.9826   -5.6194   17.1053 C   0  0  0  0  0  0  0  0  0  0  0  0
   11.0671   -3.3533   19.8974 C   0  0  0  0  0  0  0  0  0  0  0  0
    1.0919  -11.4475   18.7438 C   0  0  0  0  0  0  0  0  0  0  0  0
   10.5828   -4.6588   20.2538 C   0  0  0  0  0  0  0  0  0  0  0  0
    8.8896   -7.5887   18.4471 P   0  0  0  0  0  0  0  0  0  0  0  0
   10.8013   -5.2198   21.6171 N   0  0  0  0  0  0  0  0  0  0  0  0
   10.1596   -3.4832   17.6123 C   0  0  0  0  0  0  0  0  0  0  0  0
   10.1063   -5.4911   19.1954 C   0  0  0  0  0  0  0  0  0  0  0  0
    1.2579   -9.8185   17.0469 C   0  0  0  0  0  0  0  0  0  0  0  0
    0.1552  -10.2843   14.9419 C   0  0  0  0  0  0  0  0  0  0  0  0
    0.2781  -10.6831   16.3390 He  0  0  0  0  0  0  0  0  0  0  0  0
  1  6  1  0
  1 21  1  0
  2 21  1  0
  2 23  4  0
  3  6  4  0
  3 28  4  0
  3 31  4  0
  4 22  1  0
  4 23  1  0
  4 26  4  0
  4 32  4  0
  5  7  4  0
  5 26  4  0
  6 14  1  0
  6 15  4  0
  6 20  1  0
  7 11  4  0
  7 18  4  0
  7 27  3  0
  8 12  3  0
  8 21  3  0
  8 29  4  0
  9 10  1  0
  9 18  2  0
  9 21  1  0
 10 12  1  0
 10 16  1  0
 10 26  2  0
 11 12  3  0
 11 17  4  0
 12 14  1  0
 13 17  4  0
 13 33  4  0
 14 23  3  0
 15 32  1  0
 17 27  3  0
 18 26  1  0
 19 25  4  0
 19 30  4  0
 20 24  4  0
 20 28  4  0
 20 33  4  0
 21 28  3  0
 22 24  4  0
 22 31  4  0
 23 25  4  0
 25 27  4  0
 27 29  4  0
 27 31  4  0
M  END
$$$$

 Created by Python create_sdf_string function

 34 39  0  0  0  0  0  0  0  0999 V2000
    7.4609   -8.1467   15.5379 C   0  0  0  0  0  0  0  0  0  0  0  0
   11.5492   -3.0761   22.1812 C   0  0  0  0  0  0  0  0  0  0  0  0
    9.8188   -6.8809   19.2804 C   0  0  0  0  0  0  0  0  0  0  0  0
    1.5119  -10.3045   18.2914 N   0  0  0  0  0  0  0  0  0  0  0  0
    0.1247  -12.1358   17.9854 N   0  0  0  0  0  0  0  0  0  0  0  0
    7.2231   -7.3766   16.7357 N   0  0  0  0  0  0  0  0  0  0  0  0
   -0.2058  -11.7375   16.7442 C   0  0  0  0  0  0  0  0  0  0  0  0
   11.1952   -4.4235   22.4515 C   0  0  0  0  0  0  0  0  0  0  0  0
    5.1398   -8.7941   14.8217 C   0  0  0  0  0  0  0  0  0  0  0  0
    4.2907   -8.3696   15.9152 N   0  0  0  0  0  0  0  0  0  0  0  0
   -1.1421  -12.4543   15.9980 C   0  0  0  0  0  0  0  0  0  0  0  0
    4.7788   -7.4779   16.8226 C   0  0  0  0  0  0  0  0  0  0  0  0
   -0.8030  -10.9357   14.2079 N   0  0  0  0  0  0  0  0  0  0  0  0
    6.0299   -7.5624   17.4348 C   0  0  0  0  0  0  0  0  0  0  0  0
    2.0074   -8.7857   16.6338 C   0  0  0  0  0  0  0  0  0  0  0  0
    3.0993   -8.9204   15.8020 C   0  0  0  0  0  0  0  0  0  0  0  0
   -1.4250  -12.0245   14.7201 C   0  0  0  0  0  0  0  0  0  0  0  0
    1.2160  -11.8752   19.9302 N   0  0  0  0  0  0  0  0  0  0  0  0
   10.8387   -2.9343   18.6644 C   0  0  0  0  0  0  0  0  0  0  0  0
    8.3242   -6.8582   17.3857 C   0  0  0  0  0  0  0  0  0  0  0  0
    6.4969   -9.2764   15.2497 C   0  0  0  0  0  0  0  0  0  0  0  0
    9.7032   -4.9431   17.9769 C   0  0  0  0  0  0  0  0  0  0  0  0
   11.4742   -2.6126   20.9467 N   0  0  0  0  0  0  0  0  0  0  0  0
    0.3973  -10.6261   16.2316 C   0  0  0  0  0  0  0  0  0  0  0  0
    8.8234   -5.6227   17.1175 C   0  0  0  0  0  0  0  0  0  0  0  0
   11.0009   -3.4078   19.9326 C   0  0  0  0  0  0  0  0  0  0  0  0
    0.9480  -11.4273   18.7255 C   0  0  0  0  0  0  0  0  0  0  0  0
   10.6224   -4.7344   20.1412 C   0  0  0  0  0  0  0  0  0  0  0  0
    8.9521   -7.5354   18.3966 C   0  0  0  0  0  0  0  0  0  0  0  0
   10.7791   -5.2409   21.4526 N   0  0  0  0  0  0  0  0  0  0  0  0
   10.1729   -3.6464   17.6968 C   0  0  0  0  0  0  0  0  0  0  0  0
   10.0935   -5.4854   19.1550 C   0  0  0  0  0  0  0  0  0  0  0  0
    1.2884   -9.9542   17.0603 C   0  0  0  0  0  0  0  0  0  0  0  0
    0.0659  -10.2540   14.9467 C   0  0  0  0  0  0  0  0  0  0  0  0
  1  6  1  0
  1 21  1  0
  2  8  4  0
  2 23  4  0
  3 29  4  0
  3 32  4  0
  4 27  4  0
  4 33  4  0
  5  7  4  0
  5 27  4  0
  6 14  1  0
  6 20  1  0
  7 11  4  0
  7 24  4  0
  8 30  4  0
  9 10  1  0
  9 21  1  0
 10 12  1  0
 10 16  1  0
 11 17  4  0
 12 14  1  0
 13 17  4  0
 13 34  4  0
 15 16  1  0
 15 33  1  0
 18 27  1  0
 19 26  4  0
 19 31  4  0
 20 25  4  0
 20 29  4  0
 22 25  4  0
 22 31  4  0
 22 32  4  0
 23 26  4  0
 24 33  4  0
 24 34  4  0
 26 28  4  0
 28 30  4  0
 28 32  4  0
M  END
$$$$

 Created by Python create_sdf_string function

 34 49  0  0  0  0  0  0  0  0999 V2000
    7.5025   -8.1125   15.3814 C   0  0  0  0  0  0  0  0  0  0  0  0
   11.3549   -3.0291   22.3302 C   0  0  0  0  0  0  0  0  0  0  0  0
    9.9586   -6.9188   19.5151 C   0  0  0  0  0  0  0  0  0  0  0  0
    1.5689  -10.5567   18.1296 N   0  0  0  0  0  0  0  0  0  0  0  0
    0.1993  -12.1700   17.9920 N   0  0  0  0  0  0  0  0  0  0  0  0
    7.1787   -7.3786   16.6444 N   0  0  0  0  0  0  0  0  0  0  0  0
   -0.1618  -11.6100   16.6540 C   0  0  0  0  0  0  0  0  0  0  0  0
   11.3847   -4.4721   22.4487 C   0  0  0  0  0  0  0  0  0  0  0  0
    4.3095   -8.4995   15.7967 N   0  0  0  0  0  0  0  0  0  0  0  0
   -1.0412  -12.4304   16.0441 C   0  0  0  0  0  0  0  0  0  0  0  0
    4.7477   -7.5761   16.8765 C   0  0  0  0  0  0  0  0  0  0  0  0
   -0.8751  -10.8847   14.3014 N   0  0  0  0  0  0  0  0  0  0  0  0
    5.8307   -7.6347   17.3504 N   0  0  0  0  0  0  0  0  0  0  0  0
    2.0553   -8.6687   16.5753 C   0  0  0  0  0  0  0  0  0  0  0  0
    3.2541   -8.8107   15.8749 C   0  0  0  0  0  0  0  0  0  0  0  0
   -1.3576  -11.9889   14.6984 C   0  0  0  0  0  0  0  0  0  0  0  0
    1.3467  -11.9131   19.8790 N   0  0  0  0  0  0  0  0  0  0  0  0
   10.7541   -2.8033   18.5437 C   0  0  0  0  0  0  0  0  0  0  0  0
    8.3108   -6.8998   17.3043 C   0  0  0  0  0  0  0  0  0  0  0  0
    6.4923   -9.1849   15.2310 C   0  0  0  0  0  0  0  0  0  0  0  0
    9.7320   -5.0310   18.0711 C   0  0  0  0  0  0  0  0  0  0  0  0
   11.4157   -2.5589   21.0115 N   0  0  0  0  0  0  0  0  0  0  0  0
    0.3261  -10.4949   16.3793 C   0  0  0  0  0  0  0  0  0  0  0  0
    8.8142   -5.7117   17.2477 C   0  0  0  0  0  0  0  0  0  0  0  0
   11.0612   -3.3659   19.9242 C   0  0  0  0  0  0  0  0  0  0  0  0
    0.9394  -11.4305   18.7273 C   0  0  0  0  0  0  0  0  0  0  0  0
   10.6604   -4.7193   20.0567 C   0  0  0  0  0  0  0  0  0  0  0  0
    8.8385   -7.5749   18.4348 N   0  0  0  0  0  0  0  0  0  0  0  0
   10.8916   -5.1501   21.6299 N   0  0  0  0  0  0  0  0  0  0  0  0
   10.1536   -3.7148   17.7230 C   0  0  0  0  0  0  0  0  0  0  0  0
   10.0360   -5.6964   19.2517 C   0  0  0  0  0  0  0  0  0  0  0  0
    1.2445  -10.0471   17.1112 C   0  0  0  0  0  0  0  0  0  0  0  0
    0.1100  -10.4453   14.9455 C   0  0  0  0  0  0  0  0  0  0  0  0
    5.1384   -8.9294   14.7522 He  0  0  0  0  0  0  0  0  0  0  0  0
  1  6  1  0
  1 20  1  0
  2  8  4  0
  2  9  3  0
  2 22  4  0
  3 14  4  0
  3 27  3  0
  3 28  4  0
  3 31  4  0
  4  7  4  0
  4 15  2  0
  4 24  3  0
  4 26  4  0
  4 32  4  0
  5  7  4  0
  5 26  4  0
  6 13  1  0
  6 19  1  0
  7 10  4  0
  7 19  2  0
  7 23  4  0
  8 29  4  0
  9 11  1  0
  9 31  3  0
 10 16  4  0
 11 13  1  0
 11 17  2  0
 12 16  4  0
 12 27  1  0
 12 33  4  0
 13 15  1  0
 13 24  1  0
 14 15  1  0
 14 32  1  0
 15 31  4  0
 17 26  1  0
 18 25  4  0
 18 30  4  0
 19 24  4  0
 19 28  4  0
 21 24  4  0
 21 30  4  0
 21 31  4  0
 23 32  4  0
 23 33  4  0
 24 29  4  0
 25 27  4  0
 25 31  3  0
 27 31  4  0
M  END
$$$$

 Created by Python create_sdf_string function

 34 39  0  0  0  0  0  0  0  0999 V2000
    7.4453   -8.1002   15.4797 C   0  0  0  0  0  0  0  0  0  0  0  0
   11.4969   -3.0221   22.2364 C   0  0  0  0  0  0  0  0  0  0  0  0
    9.7571   -6.9072   19.3260 C   0  0  0  0  0  0  0  0  0  0  0  0
    1.5952  -10.3979   18.2174 N   0  0  0  0  0  0  0  0  0  0  0  0
    0.1146  -12.1129   17.9799 N   0  0  0  0  0  0  0  0  0  0  0  0
    7.2163   -7.3992   16.7273 N   0  0  0  0  0  0  0  0  0  0  0  0
   -0.1896  -11.7351   16.7450 C   0  0  0  0  0  0  0  0  0  0  0  0
   11.2879   -4.4134   22.4685 C   0  0  0  0  0  0  0  0  0  0  0  0
    5.1766   -8.8772   14.8407 C   0  0  0  0  0  0  0  0  0  0  0  0
    4.2978   -8.4404   15.8487 N   0  0  0  0  0  0  0  0  0  0  0  0
   -1.1213  -12.4557   15.9978 C   0  0  0  0  0  0  0  0  0  0  0  0
    4.7507   -7.5625   16.8249 C   0  0  0  0  0  0  0  0  0  0  0  0
   -0.8227  -10.9303   14.2428 N   0  0  0  0  0  0  0  0  0  0  0  0
    6.0076   -7.5694   17.3506 C   0  0  0  0  0  0  0  0  0  0  0  0
    1.9813   -8.7143   16.6298 C   0  0  0  0  0  0  0  0  0  0  0  0
    3.1279   -8.9435   15.7623 C   0  0  0  0  0  0  0  0  0  0  0  0
   -1.4135  -12.0275   14.7324 C   0  0  0  0  0  0  0  0  0  0  0  0
    1.2932  -11.9226   19.9099 N   0  0  0  0  0  0  0  0  0  0  0  0
   10.7928   -2.9471   18.7027 C   0  0  0  0  0  0  0  0  0  0  0  0
    8.3120   -6.8666   17.4024 C   0  0  0  0  0  0  0  0  0  0  0  0
    6.5232   -9.2412   15.2160 C   0  0  0  0  0  0  0  0  0  0  0  0
    9.6891   -4.9827   18.0255 C   0  0  0  0  0  0  0  0  0  0  0  0
   11.3787   -2.5662   20.9744 N   0  0  0  0  0  0  0  0  0  0  0  0
    0.4159  -10.6342   16.2180 C   0  0  0  0  0  0  0  0  0  0  0  0
    8.8141   -5.6624   17.1522 C   0  0  0  0  0  0  0  0  0  0  0  0
   10.9542   -3.3958   19.9803 C   0  0  0  0  0  0  0  0  0  0  0  0
    1.0082  -11.4858   18.6919 C   0  0  0  0  0  0  0  0  0  0  0  0
   10.6423   -4.7439   20.1804 C   0  0  0  0  0  0  0  0  0  0  0  0
    8.8827   -7.5377   18.4389 C   0  0  0  0  0  0  0  0  0  0  0  0
   10.9102   -5.2507   21.4725 N   0  0  0  0  0  0  0  0  0  0  0  0
   10.1453   -3.7080   17.7431 C   0  0  0  0  0  0  0  0  0  0  0  0
   10.0703   -5.5309   19.2065 C   0  0  0  0  0  0  0  0  0  0  0  0
    1.3268   -9.9709   17.0399 C   0  0  0  0  0  0  0  0  0  0  0  0
    0.0356  -10.2545   14.9601 C   0  0  0  0  0  0  0  0  0  0  0  0
  1  6  1  0
  1 21  1  0
  2  8  4  0
  2 23  4  0
  3 29  4  0
  3 32  4  0
  4 27  4  0
  4 33  4  0
  5  7  4  0
  5 27  4  0
  6 14  1  0
  6 20  1  0
  7 11  4  0
  7 24  4  0
  8 30  4  0
  9 10  1  0
  9 21  1  0
 10 12  1  0
 10 16  1  0
 11 17  4  0
 12 14  1  0
 13 17  4  0
 13 34  4  0
 15 16  1  0
 15 33  1  0
 18 27  1  0
 19 26  4  0
 19 31  4  0
 20 25  4  0
 20 29  4  0
 22 25  4  0
 22 31  4  0
 22 32  4  0
 23 26  4  0
 24 33  4  0
 24 34  4  0
 26 28  4  0
 28 30  4  0
 28 32  4  0
M  END
$$$$

 Created by Python create_sdf_string function

 34 45  0  0  0  0  0  0  0  0999 V2000
    7.4478   -8.0585   15.4421 C   0  0  0  0  0  0  0  0  0  0  0  0
   11.4443   -2.9671   22.2875 C   0  0  0  0  0  0  0  0  0  0  0  0
    9.7021   -6.7681   19.2693 C   0  0  0  0  0  0  0  0  0  0  0  0
    1.4587  -10.4528   18.1135 N   0  0  0  0  0  0  0  0  0  0  0  0
    0.1883  -12.1627   18.0472 N   0  0  0  0  0  0  0  0  0  0  0  0
   -0.1580  -11.7377   16.7536 C   0  0  0  0  0  0  0  0  0  0  0  0
   11.3506   -4.4779   22.5407 C   0  0  0  0  0  0  0  0  0  0  0  0
    5.2740   -8.9379   14.8046 C   0  0  0  0  0  0  0  0  0  0  0  0
    4.3941   -8.3124   15.8812 N   0  0  0  0  0  0  0  0  0  0  0  0
   -1.0560  -12.5155   16.0886 C   0  0  0  0  0  0  0  0  0  0  0  0
    4.6754   -7.4700   16.8707 C   0  0  0  0  0  0  0  0  0  0  0  0
   -0.7733  -10.8640   14.2834 N   0  0  0  0  0  0  0  0  0  0  0  0
    5.8949   -7.5905   17.4353 C   0  0  0  0  0  0  0  0  0  0  0  0
    2.0113   -8.7042   16.6910 C   0  0  0  0  0  0  0  0  0  0  0  0
    3.0443   -8.9458   15.8228 C   0  0  0  0  0  0  0  0  0  0  0  0
   -1.3012  -12.1084   14.7549 C   0  0  0  0  0  0  0  0  0  0  0  0
    1.2634  -11.8741   20.0506 N   0  0  0  0  0  0  0  0  0  0  0  0
   10.8173   -2.9109   18.6853 C   0  0  0  0  0  0  0  0  0  0  0  0
    8.3461   -6.9242   17.4040 C   0  0  0  0  0  0  0  0  0  0  0  0
    6.4112   -9.2832   15.2992 C   0  0  0  0  0  0  0  0  0  0  0  0
    9.6932   -4.9399   18.0149 C   0  0  0  0  0  0  0  0  0  0  0  0
   11.4181   -2.6013   21.0717 N   0  0  0  0  0  0  0  0  0  0  0  0
    0.4089  -10.6789   16.2751 C   0  0  0  0  0  0  0  0  0  0  0  0
    8.8854   -5.6857   17.1676 C   0  0  0  0  0  0  0  0  0  0  0  0
   10.8273   -3.3153   19.8848 C   0  0  0  0  0  0  0  0  0  0  0  0
    0.8982  -11.5033   18.5815 C   0  0  0  0  0  0  0  0  0  0  0  0
   10.6323   -4.7355   20.1167 C   0  0  0  0  0  0  0  0  0  0  0  0
    8.9323   -7.6050   18.4972 C   0  0  0  0  0  0  0  0  0  0  0  0
   10.0433   -3.7939   17.6555 C   0  0  0  0  0  0  0  0  0  0  0  0
    9.9787   -5.4697   19.0790 C   0  0  0  0  0  0  0  0  0  0  0  0
    1.4287   -9.8559   17.1065 C   0  0  0  0  0  0  0  0  0  0  0  0
    0.0814  -10.2558   14.8168 C   0  0  0  0  0  0  0  0  0  0  0  0
    7.2444   -7.4732   16.6228 He  0  0  0  0  0  0  0  0  0  0  0  0
   10.9661   -5.2869   21.5334 He  0  0  0  0  0  0  0  0  0  0  0  0
  1 20  1  0
  1 28  3  0
  1 30  4  0
  2  7  4  0
  2 22  4  0
  3  9  3  0
  3 28  4  0
  3 30  4  0
  4 23  3  0
  4 26  4  0
  4 31  4  0
  5  6  4  0
  5 26  4  0
  6 10  4  0
  6 23  4  0
  8  9  1  0
  8 20  1  0
  8 24  3  0
  8 27  4  0
  9 11  1  0
  9 15  1  0
 10 16  4  0
 10 28  2  0
 11 13  1  0
 12 16  4  0
 12 32  4  0
 14 15  1  0
 14 17  2  0
 14 31  1  0
 15 26  2  0
 18 25  4  0
 18 28  4  0
 18 29  4  0
 19 24  4  0
 19 28  4  0
 21 24  4  0
 21 29  4  0
 21 30  4  0
 22 25  4  0
 23 31  4  0
 23 32  4  0
 24 26  3  0
 25 27  4  0
 27 30  4  0
 27 32  2  0
M  END
$$$$

 Created by Python create_sdf_string function

 34 39  0  0  0  0  0  0  0  0999 V2000
    7.4108   -8.1089   15.5050 C   0  0  0  0  0  0  0  0  0  0  0  0
   11.5111   -3.0399   22.2523 C   0  0  0  0  0  0  0  0  0  0  0  0
    9.7301   -6.8615   19.3264 C   0  0  0  0  0  0  0  0  0  0  0  0
    1.5547  -10.3841   18.2419 N   0  0  0  0  0  0  0  0  0  0  0  0
    0.1252  -12.1537   17.9994 N   0  0  0  0  0  0  0  0  0  0  0  0
    7.1932   -7.4179   16.7447 N   0  0  0  0  0  0  0  0  0  0  0  0
   -0.1716  -11.7667   16.7430 C   0  0  0  0  0  0  0  0  0  0  0  0
   11.3234   -4.4228   22.4968 C   0  0  0  0  0  0  0  0  0  0  0  0
    5.1809   -8.8604   14.8373 C   0  0  0  0  0  0  0  0  0  0  0  0
    4.2984   -8.3729   15.8506 N   0  0  0  0  0  0  0  0  0  0  0  0
   -1.0841  -12.5109   15.9956 C   0  0  0  0  0  0  0  0  0  0  0  0
    4.7032   -7.4960   16.8386 C   0  0  0  0  0  0  0  0  0  0  0  0
   -0.7791  -10.9520   14.2206 N   0  0  0  0  0  0  0  0  0  0  0  0
    5.9756   -7.5699   17.4372 C   0  0  0  0  0  0  0  0  0  0  0  0
    1.9867   -8.7409   16.6688 C   0  0  0  0  0  0  0  0  0  0  0  0
    3.0817   -8.9069   15.7431 C   0  0  0  0  0  0  0  0  0  0  0  0
   -1.3506  -12.0572   14.7288 C   0  0  0  0  0  0  0  0  0  0  0  0
    1.2368  -11.8514   19.9460 N   0  0  0  0  0  0  0  0  0  0  0  0
   10.7456   -2.9429   18.7007 C   0  0  0  0  0  0  0  0  0  0  0  0
    8.3174   -6.8754   17.3954 C   0  0  0  0  0  0  0  0  0  0  0  0
    6.4958   -9.2799   15.2985 C   0  0  0  0  0  0  0  0  0  0  0  0
    9.6625   -4.9686   17.9825 C   0  0  0  0  0  0  0  0  0  0  0  0
   11.3389   -2.5890   20.9753 N   0  0  0  0  0  0  0  0  0  0  0  0
    0.4246  -10.6445   16.2141 C   0  0  0  0  0  0  0  0  0  0  0  0
    8.8221   -5.6624   17.1050 C   0  0  0  0  0  0  0  0  0  0  0  0
   10.9235   -3.4117   19.9617 C   0  0  0  0  0  0  0  0  0  0  0  0
    0.9663  -11.4596   18.7085 C   0  0  0  0  0  0  0  0  0  0  0  0
   10.6080   -4.7488   20.1665 C   0  0  0  0  0  0  0  0  0  0  0  0
    8.8817   -7.5370   18.4543 C   0  0  0  0  0  0  0  0  0  0  0  0
   10.8995   -5.2429   21.4703 C   0  0  0  0  0  0  0  0  0  0  0  0
   10.1226   -3.6920   17.7260 C   0  0  0  0  0  0  0  0  0  0  0  0
   10.0282   -5.5115   19.1870 C   0  0  0  0  0  0  0  0  0  0  0  0
    1.3105   -9.9750   17.0400 C   0  0  0  0  0  0  0  0  0  0  0  0
    0.0897  -10.2504   14.9412 C   0  0  0  0  0  0  0  0  0  0  0  0
  1  6  1  0
  1 21  1  0
  2  8  4  0
  2 23  4  0
  3 29  4  0
  3 32  4  0
  4 27  4  0
  4 33  4  0
  5  7  4  0
  5 27  4  0
  6 14  1  0
  6 20  1  0
  7 11  4  0
  7 24  4  0
  8 30  4  0
  9 10  1  0
  9 21  1  0
 10 12  1  0
 10 16  1  0
 11 17  4  0
 12 14  1  0
 13 17  4  0
 13 34  4  0
 15 16  1  0
 15 33  1  0
 18 27  1  0
 19 26  4  0
 19 31  4  0
 20 25  4  0
 20 29  4  0
 22 25  4  0
 22 31  4  0
 22 32  4  0
 23 26  4  0
 24 33  4  0
 24 34  4  0
 26 28  4  0
 28 30  4  0
 28 32  4  0
M  END
$$$$

 Created by Python create_sdf_string function

 34 51  0  0  0  0  0  0  0  0999 V2000
    7.5419   -8.2062   15.5584 C   0  0  0  0  0  0  0  0  0  0  0  0
   11.4776   -3.1231   22.1628 C   0  0  0  0  0  0  0  0  0  0  0  0
    9.7680   -6.8670   19.2915 C   0  0  0  0  0  0  0  0  0  0  0  0
    1.5941  -10.3509   18.4047 N   0  0  0  0  0  0  0  0  0  0  0  0
    0.1119  -12.2424   18.0639 N   0  0  0  0  0  0  0  0  0  0  0  0
    7.1651   -7.5885   16.6599 N   0  0  0  0  0  0  0  0  0  0  0  0
   -0.1332  -11.7482   16.7887 C   0  0  0  0  0  0  0  0  0  0  0  0
   11.4060   -4.3805   22.4782 C   0  0  0  0  0  0  0  0  0  0  0  0
    5.2571   -8.9041   14.8930 C   0  0  0  0  0  0  0  0  0  0  0  0
    4.3215   -8.2854   15.9127 N   0  0  0  0  0  0  0  0  0  0  0  0
   -1.1199  -12.6105   15.9457 C   0  0  0  0  0  0  0  0  0  0  0  0
    4.6508   -7.5600   16.9410 C   0  0  0  0  0  0  0  0  0  0  0  0
   -0.9206  -10.8521   14.1585 N   0  0  0  0  0  0  0  0  0  0  0  0
    5.9881   -7.5448   17.4452 C   0  0  0  0  0  0  0  0  0  0  0  0
    1.9881   -8.6734   16.7890 C   0  0  0  0  0  0  0  0  0  0  0  0
    2.9597   -8.8525   15.8730 C   0  0  0  0  0  0  0  0  0  0  0  0
   -1.2129  -12.1101   14.7941 C   0  0  0  0  0  0  0  0  0  0  0  0
    1.0367  -11.8386   19.8980 N   0  0  0  0  0  0  0  0  0  0  0  0
   10.7433   -2.9414   18.6937 C   0  0  0  0  0  0  0  0  0  0  0  0
    8.2628   -6.8958   17.4464 C   0  0  0  0  0  0  0  0  0  0  0  0
    6.3926   -9.2131   15.4243 C   0  0  0  0  0  0  0  0  0  0  0  0
    9.7119   -4.8323   17.8716 C   0  0  0  0  0  0  0  0  0  0  0  0
   11.3200   -2.4606   20.9801 N   0  0  0  0  0  0  0  0  0  0  0  0
    0.3871  -10.6781   16.2822 C   0  0  0  0  0  0  0  0  0  0  0  0
    8.9341   -5.6826   17.1336 C   0  0  0  0  0  0  0  0  0  0  0  0
   10.9165   -3.4778   19.8803 C   0  0  0  0  0  0  0  0  0  0  0  0
    1.0051  -11.4552   18.7157 C   0  0  0  0  0  0  0  0  0  0  0  0
   10.6343   -4.7949   20.2439 C   0  0  0  0  0  0  0  0  0  0  0  0
    8.9318   -7.5302   18.4093 C   0  0  0  0  0  0  0  0  0  0  0  0
   10.9048   -5.1362   21.5827 C   0  0  0  0  0  0  0  0  0  0  0  0
   10.1124   -3.6969   17.6723 C   0  0  0  0  0  0  0  0  0  0  0  0
    1.2445   -9.9112   17.1672 C   0  0  0  0  0  0  0  0  0  0  0  0
    0.0628  -10.1817   15.0130 C   0  0  0  0  0  0  0  0  0  0  0  0
   10.1540   -5.4571   19.2253 He  0  0  0  0  0  0  0  0  0  0  0  0
  1  6  1  0
  1 31  3  0
  2  8  4  0
  2 23  4  0
  3 21  2  0
  3 29  4  0
  4 27  4  0
  4 28  3  0
  4 32  4  0
  5  7  4  0
  5 14  3  0
  5 23  4  0
  6 14  1  0
  6 20  1  0
  7 11  2  0
  7 24  4  0
  8 14  3  0
  8 30  4  0
  9 10  1  0
  9 21  1  0
  9 31  3  0
  9 32  2  0
 10 12  1  0
 10 16  1  0
 11 17  4  0
 11 27  2  0
 12 14  1  0
 13 17  4  0
 13 33  4  0
 14 25  3  0
 15 16  3  0
 15 18  2  0
 15 32  1  0
 16 18  2  0
 16 21  4  0
 17 32  2  0
 18 27  1  0
 19 25  1  0
 19 26  4  0
 19 31  4  0
 20 25  4  0
 20 29  4  0
 22 25  4  0
 22 31  4  0
 23 26  4  0
 24 32  4  0
 24 33  4  0
 25 32  3  0
 26 28  4  0
 26 33  2  0
 28 30  4  0
M  END
$$$$

 Created by Python create_sdf_string function

 34 39  0  0  0  0  0  0  0  0999 V2000
    7.4531   -8.2326   15.6053 C   0  0  0  0  0  0  0  0  0  0  0  0
   11.5456   -3.0313   22.1997 C   0  0  0  0  0  0  0  0  0  0  0  0
    9.7818   -6.8798   19.3200 C   0  0  0  0  0  0  0  0  0  0  0  0
    1.5372  -10.3584   18.3353 N   0  0  0  0  0  0  0  0  0  0  0  0
    0.1289  -12.1687   18.0008 N   0  0  0  0  0  0  0  0  0  0  0  0
    7.1813   -7.4604   16.7627 N   0  0  0  0  0  0  0  0  0  0  0  0
   -0.1648  -11.7695   16.7607 C   0  0  0  0  0  0  0  0  0  0  0  0
   11.3488   -4.3636   22.4800 C   0  0  0  0  0  0  0  0  0  0  0  0
    5.1745   -8.8358   14.9144 C   0  0  0  0  0  0  0  0  0  0  0  0
    4.2499   -8.3541   15.9007 N   0  0  0  0  0  0  0  0  0  0  0  0
   -1.0431  -12.5363   15.9558 C   0  0  0  0  0  0  0  0  0  0  0  0
    4.6735   -7.5507   16.9389 C   0  0  0  0  0  0  0  0  0  0  0  0
   -0.8012  -10.9073   14.2493 N   0  0  0  0  0  0  0  0  0  0  0  0
    5.9759   -7.5385   17.4397 C   0  0  0  0  0  0  0  0  0  0  0  0
    1.9597   -8.7202   16.7486 C   0  0  0  0  0  0  0  0  0  0  0  0
    3.0108   -8.8221   15.7968 C   0  0  0  0  0  0  0  0  0  0  0  0
   -1.3146  -12.0627   14.7073 C   0  0  0  0  0  0  0  0  0  0  0  0
    1.1297  -11.8555   19.9887 N   0  0  0  0  0  0  0  0  0  0  0  0
   10.7378   -2.9465   18.6892 C   0  0  0  0  0  0  0  0  0  0  0  0
    8.3100   -6.8935   17.3902 C   0  0  0  0  0  0  0  0  0  0  0  0
    6.4524   -9.3129   15.3833 C   0  0  0  0  0  0  0  0  0  0  0  0
    9.6880   -4.9723   17.9882 C   0  0  0  0  0  0  0  0  0  0  0  0
   11.3489   -2.5650   20.9467 N   0  0  0  0  0  0  0  0  0  0  0  0
    0.3961  -10.6075   16.2780 C   0  0  0  0  0  0  0  0  0  0  0  0
    8.8427   -5.6723   17.1172 C   0  0  0  0  0  0  0  0  0  0  0  0
   10.9127   -3.4049   19.9479 C   0  0  0  0  0  0  0  0  0  0  0  0
    0.9304  -11.4568   18.7606 C   0  0  0  0  0  0  0  0  0  0  0  0
   10.6178   -4.7370   20.1655 C   0  0  0  0  0  0  0  0  0  0  0  0
    8.9158   -7.5221   18.4403 C   0  0  0  0  0  0  0  0  0  0  0  0
   10.9073   -5.2069   21.4763 C   0  0  0  0  0  0  0  0  0  0  0  0
   10.1330   -3.7093   17.7189 C   0  0  0  0  0  0  0  0  0  0  0  0
   10.0605   -5.5111   19.1819 C   0  0  0  0  0  0  0  0  0  0  0  0
    1.2819   -9.9443   17.1296 C   0  0  0  0  0  0  0  0  0  0  0  0
    0.0397  -10.1995   15.0228 C   0  0  0  0  0  0  0  0  0  0  0  0
  1  6  1  0
  1 21  1  0
  2  8  4  0
  2 23  4  0
  3 29  4  0
  3 32  4  0
  4 27  4  0
  4 33  4  0
  5  7  4  0
  5 27  4  0
  6 14  1  0
  6 20  1  0
  7 11  4  0
  7 24  4  0
  8 30  4  0
  9 10  1  0
  9 21  1  0
 10 12  1  0
 10 16  1  0
 11 17  4  0
 12 14  1  0
 13 17  4  0
 13 34  4  0
 15 16  1  0
 15 33  1  0
 18 27  1  0
 19 26  4  0
 19 31  4  0
 20 25  4  0
 20 29  4  0
 22 25  4  0
 22 31  4  0
 22 32  4  0
 23 26  4  0
 24 33  4  0
 24 34  4  0
 26 28  4  0
 28 30  4  0
 28 32  4  0
M  END
$$$$

 Created by Python create_sdf_string function

 34 49  0  0  0  0  0  0  0  0999 V2000
    7.3474   -8.1973   15.6238 C   0  0  0  0  0  0  0  0  0  0  0  0
   11.5763   -2.9876   22.3376 C   0  0  0  0  0  0  0  0  0  0  0  0
    9.8407   -6.7499   19.2850 C   0  0  0  0  0  0  0  0  0  0  0  0
    1.5288  -10.4106   18.2369 N   0  0  0  0  0  0  0  0  0  0  0  0
    0.0958  -12.1747   18.0508 N   0  0  0  0  0  0  0  0  0  0  0  0
    7.0577   -7.4784   16.7274 N   0  0  0  0  0  0  0  0  0  0  0  0
   -0.1416  -11.8533   16.7370 C   0  0  0  0  0  0  0  0  0  0  0  0
   11.3885   -4.3544   22.5976 C   0  0  0  0  0  0  0  0  0  0  0  0
    5.1814   -8.7766   14.8675 C   0  0  0  0  0  0  0  0  0  0  0  0
    4.1747   -8.3641   15.9133 N   0  0  0  0  0  0  0  0  0  0  0  0
   -1.0232  -12.5497   15.8844 N   0  0  0  0  0  0  0  0  0  0  0  0
    4.6509   -7.6116   16.8944 C   0  0  0  0  0  0  0  0  0  0  0  0
   -0.8109  -10.8808   14.2447 N   0  0  0  0  0  0  0  0  0  0  0  0
    5.9243   -7.4587   17.4340 C   0  0  0  0  0  0  0  0  0  0  0  0
    1.9710   -8.6687   16.7808 C   0  0  0  0  0  0  0  0  0  0  0  0
    2.9561   -8.8480   15.8795 C   0  0  0  0  0  0  0  0  0  0  0  0
   -1.3788  -12.0151   14.7503 C   0  0  0  0  0  0  0  0  0  0  0  0
    1.0044  -11.9460   19.9167 N   0  0  0  0  0  0  0  0  0  0  0  0
   10.7531   -2.9123   18.7124 N   0  0  0  0  0  0  0  0  0  0  0  0
    6.5309   -9.3802   15.2904 C   0  0  0  0  0  0  0  0  0  0  0  0
    9.7387   -5.0142   18.0605 C   0  0  0  0  0  0  0  0  0  0  0  0
   11.2204   -2.5550   20.9845 N   0  0  0  0  0  0  0  0  0  0  0  0
    0.3388  -10.6454   16.3291 C   0  0  0  0  0  0  0  0  0  0  0  0
    8.8469   -5.7084   17.1427 C   0  0  0  0  0  0  0  0  0  0  0  0
   10.9141   -3.4623   19.8531 C   0  0  0  0  0  0  0  0  0  0  0  0
    0.9555  -11.4221   18.8082 C   0  0  0  0  0  0  0  0  0  0  0  0
   10.7231   -4.7826   20.0292 C   0  0  0  0  0  0  0  0  0  0  0  0
    8.8931   -7.3847   18.4476 P   0  0  0  0  0  0  0  0  0  0  0  0
   10.8526   -5.2096   21.3698 C   0  0  0  0  0  0  0  0  0  0  0  0
   10.1215   -3.6910   17.6451 C   0  0  0  0  0  0  0  0  0  0  0  0
    9.8868   -5.4056   19.2235 C   0  0  0  0  0  0  0  0  0  0  0  0
    1.2723   -9.9737   17.1640 C   0  0  0  0  0  0  0  0  0  0  0  0
    0.0151  -10.1306   14.9230 C   0  0  0  0  0  0  0  0  0  0  0  0
    8.4017   -6.9190   17.3366 He  0  0  0  0  0  0  0  0  0  0  0  0
  1  6  1  0
  2  8  4  0
  2 11  4  0
  2 22  4  0
  3 28  4  0
  3 31  4  0
  4 26  4  0
  4 32  4  0
  5  7  4  0
  5 26  3  0
  6 14  1  0
  6 15  3  0
  7 11  4  0
  7 20  1  0
  7 23  4  0
  7 24  4  0
  8 22  2  0
  8 29  4  0
  9 10  1  0
  9 20  1  0
  9 28  1  0
 10 12  1  0
 11 14  4  0
 11 17  4  0
 11 24  3  0
 12 14  1  0
 13 17  4  0
 13 33  4  0
 15 16  1  0
 18 26  1  0
 19 24  3  0
 19 25  4  0
 19 27  1  0
 19 28  4  0
 19 30  4  0
 21 24  4  0
 21 30  4  0
 21 31  4  0
 22 25  4  0
 23 27  4  0
 23 31  2  0
 23 32  4  0
 23 33  4  0
 24 26  1  0
 25 27  4  0
 27 29  3  0
 27 31  4  0
 29 30  4  0
 32 33  1  0
M  END
$$$$

 Created by Python create_sdf_string function

 34 39  0  0  0  0  0  0  0  0999 V2000
    7.4138   -8.1952   15.6272 C   0  0  0  0  0  0  0  0  0  0  0  0
   11.5423   -3.0086   22.2326 C   0  0  0  0  0  0  0  0  0  0  0  0
    9.7298   -6.8447   19.3125 C   0  0  0  0  0  0  0  0  0  0  0  0
    1.5013  -10.3859   18.3091 N   0  0  0  0  0  0  0  0  0  0  0  0
    0.0922  -12.1841   17.9803 N   0  0  0  0  0  0  0  0  0  0  0  0
    7.1567   -7.4399   16.7789 N   0  0  0  0  0  0  0  0  0  0  0  0
   -0.1850  -11.7776   16.7382 C   0  0  0  0  0  0  0  0  0  0  0  0
   11.3604   -4.3729   22.5093 C   0  0  0  0  0  0  0  0  0  0  0  0
    5.1330   -8.7956   14.8900 C   0  0  0  0  0  0  0  0  0  0  0  0
    4.2208   -8.4014   15.9377 N   0  0  0  0  0  0  0  0  0  0  0  0
   -1.0462  -12.5086   15.9257 N   0  0  0  0  0  0  0  0  0  0  0  0
    4.6661   -7.5715   16.9265 C   0  0  0  0  0  0  0  0  0  0  0  0
   -0.8366  -10.8797   14.2558 N   0  0  0  0  0  0  0  0  0  0  0  0
    5.9475   -7.4713   17.4217 C   0  0  0  0  0  0  0  0  0  0  0  0
    1.9285   -8.7259   16.7611 C   0  0  0  0  0  0  0  0  0  0  0  0
    2.9960   -8.8526   15.7837 C   0  0  0  0  0  0  0  0  0  0  0  0
   -1.3359  -12.0181   14.7227 C   0  0  0  0  0  0  0  0  0  0  0  0
    1.0774  -11.8929   19.9797 N   0  0  0  0  0  0  0  0  0  0  0  0
   10.7437   -2.9647   18.7213 N   0  0  0  0  0  0  0  0  0  0  0  0
    8.2842   -6.8601   17.3966 C   0  0  0  0  0  0  0  0  0  0  0  0
    6.4572   -9.2949   15.3183 C   0  0  0  0  0  0  0  0  0  0  0  0
    9.6723   -4.9705   17.9756 C   0  0  0  0  0  0  0  0  0  0  0  0
   11.3470   -2.5556   20.9597 N   0  0  0  0  0  0  0  0  0  0  0  0
    0.3789  -10.6241   16.2401 C   0  0  0  0  0  0  0  0  0  0  0  0
    8.8187   -5.6429   17.1070 C   0  0  0  0  0  0  0  0  0  0  0  0
   10.8951   -3.4065   19.9646 C   0  0  0  0  0  0  0  0  0  0  0  0
    0.9018  -11.4772   18.7490 C   0  0  0  0  0  0  0  0  0  0  0  0
   10.6037   -4.7446   20.1671 C   0  0  0  0  0  0  0  0  0  0  0  0
    8.8745   -7.4724   18.4292 C   0  0  0  0  0  0  0  0  0  0  0  0
   10.9254   -5.2038   21.4734 C   0  0  0  0  0  0  0  0  0  0  0  0
   10.1267   -3.6851   17.7471 C   0  0  0  0  0  0  0  0  0  0  0  0
   10.0466   -5.4913   19.1659 C   0  0  0  0  0  0  0  0  0  0  0  0
    1.2568   -9.9747   17.1103 C   0  0  0  0  0  0  0  0  0  0  0  0
    0.0177  -10.1911   14.9911 C   0  0  0  0  0  0  0  0  0  0  0  0
  1  6  1  0
  1 21  1  0
  2  8  4  0
  2 23  4  0
  3 29  4  0
  3 32  4  0
  4 27  4  0
  4 33  4  0
  5  7  4  0
  5 27  4  0
  6 14  1  0
  6 20  1  0
  7 11  4  0
  7 24  4  0
  8 30  4  0
  9 10  1  0
  9 21  1  0
 10 12  1  0
 10 16  1  0
 11 17  4  0
 12 14  1  0
 13 17  4  0
 13 34  4  0
 15 16  1  0
 15 33  1  0
 18 27  1  0
 19 26  4  0
 19 31  4  0
 20 25  4  0
 20 29  4  0
 22 25  4  0
 22 31  4  0
 22 32  4  0
 23 26  4  0
 24 33  4  0
 24 34  4  0
 26 28  4  0
 28 30  4  0
 28 32  4  0
M  END
$$$$

 Created by Python create_sdf_string function

 34 49  0  0  0  0  0  0  0  0999 V2000
    7.4444   -8.3150   15.6358 C   0  0  0  0  0  0  0  0  0  0  0  0
   11.5739   -3.0859   22.1760 C   0  0  0  0  0  0  0  0  0  0  0  0
    9.7131   -6.8529   19.1986 C   0  0  0  0  0  0  0  0  0  0  0  0
    1.4622  -10.3830   18.3239 N   0  0  0  0  0  0  0  0  0  0  0  0
    0.0950  -12.2202   18.0223 N   0  0  0  0  0  0  0  0  0  0  0  0
    7.1996   -7.4488   16.7407 N   0  0  0  0  0  0  0  0  0  0  0  0
   -0.3051  -11.8025   16.6521 C   0  0  0  0  0  0  0  0  0  0  0  0
   11.4075   -4.3983   22.5779 C   0  0  0  0  0  0  0  0  0  0  0  0
    5.0687   -8.6332   15.0355 C   0  0  0  0  0  0  0  0  0  0  0  0
    4.2834   -8.4043   15.8421 N   0  0  0  0  0  0  0  0  0  0  0  0
   -1.0937  -12.5023   15.8556 N   0  0  0  0  0  0  0  0  0  0  0  0
    4.6635   -7.5295   16.8715 F   0  0  0  0  0  0  0  0  0  0  0  0
   -0.8938  -10.9490   14.2412 N   0  0  0  0  0  0  0  0  0  0  0  0
    5.9597   -7.5454   17.5484 C   0  0  0  0  0  0  0  0  0  0  0  0
    1.9712   -8.7305   16.7052 C   0  0  0  0  0  0  0  0  0  0  0  0
    3.0175   -8.8870   15.7187 C   0  0  0  0  0  0  0  0  0  0  0  0
   -1.2314  -12.0062   14.7405 C   0  0  0  0  0  0  0  0  0  0  0  0
    1.1056  -11.8896   19.9505 N   0  0  0  0  0  0  0  0  0  0  0  0
   10.8227   -3.0043   18.7793 N   0  0  0  0  0  0  0  0  0  0  0  0
    8.2154   -6.7933   17.4471 C   0  0  0  0  0  0  0  0  0  0  0  0
    6.4956   -9.2680   15.3505 C   0  0  0  0  0  0  0  0  0  0  0  0
    9.6736   -5.0371   17.8862 C   0  0  0  0  0  0  0  0  0  0  0  0
   11.3097   -2.5782   20.8761 N   0  0  0  0  0  0  0  0  0  0  0  0
    0.3988  -10.5198   16.2270 C   0  0  0  0  0  0  0  0  0  0  0  0
    8.6989   -5.6742   17.0801 C   0  0  0  0  0  0  0  0  0  0  0  0
   10.8681   -3.3022   19.9904 C   0  0  0  0  0  0  0  0  0  0  0  0
    0.8308  -11.4690   18.6771 C   0  0  0  0  0  0  0  0  0  0  0  0
   10.5845   -4.7941   20.1710 C   0  0  0  0  0  0  0  0  0  0  0  0
   10.8297   -5.1929   21.4153 C   0  0  0  0  0  0  0  0  0  0  0  0
   10.1480   -3.6587   17.7624 C   0  0  0  0  0  0  0  0  0  0  0  0
   10.0171   -5.4805   19.1564 C   0  0  0  0  0  0  0  0  0  0  0  0
    1.2378  -10.0478   17.0686 C   0  0  0  0  0  0  0  0  0  0  0  0
   -0.0011  -10.1733   15.0607 C   0  0  0  0  0  0  0  0  0  0  0  0
    8.9794   -7.5825   18.4049 He  0  0  0  0  0  0  0  0  0  0  0  0
  1  6  1  0
  1 20  4  0
  1 21  1  0
  2  6  2  0
  2  8  4  0
  2 23  4  0
  3 31  4  0
  4 13  1  0
  4 27  4  0
  4 32  4  0
  5  7  4  0
  5 27  4  0
  6 14  1  0
  6 20  1  0
  6 24  1  0
  7 11  4  0
  7 23  2  0
  7 24  4  0
  8 29  4  0
  9 10  1  0
  9 12  1  0
  9 15  2  0
  9 21  1  0
 10 12  1  0
 10 16  1  0
 11 17  4  0
 11 21  1  0
 12 14  1  0
 12 15  2  0
 12 31  2  0
 13 17  4  0
 13 33  4  0
 14 27  2  0
 15 16  1  0
 15 25  1  0
 15 32  1  0
 18 27  1  0
 19 26  4  0
 19 30  4  0
 20 25  4  0
 22 25  4  0
 22 30  4  0
 22 31  4  0
 23 26  4  0
 24 32  4  0
 24 33  4  0
 26 28  4  0
 28 29  4  0
 28 31  4  0
M  END
$$$$

 Created by Python create_sdf_string function

 34 39  0  0  0  0  0  0  0  0999 V2000
    7.4513   -8.2808   15.6786 C   0  0  0  0  0  0  0  0  0  0  0  0
   11.5872   -3.0543   22.2107 C   0  0  0  0  0  0  0  0  0  0  0  0
    9.7519   -6.8735   19.2601 C   0  0  0  0  0  0  0  0  0  0  0  0
    1.4612  -10.3923   18.2909 N   0  0  0  0  0  0  0  0  0  0  0  0
    0.0425  -12.1706   17.9473 N   0  0  0  0  0  0  0  0  0  0  0  0
    7.1667   -7.4283   16.7781 N   0  0  0  0  0  0  0  0  0  0  0  0
   -0.2217  -11.7661   16.7027 C   0  0  0  0  0  0  0  0  0  0  0  0
   11.3548   -4.3964   22.4892 C   0  0  0  0  0  0  0  0  0  0  0  0
    5.1613   -8.6736   14.9184 C   0  0  0  0  0  0  0  0  0  0  0  0
    4.2409   -8.4035   15.9611 N   0  0  0  0  0  0  0  0  0  0  0  0
   -1.0671  -12.4779   15.8933 N   0  0  0  0  0  0  0  0  0  0  0  0
    4.6699   -7.5269   16.8772 C   0  0  0  0  0  0  0  0  0  0  0  0
   -0.8400  -10.8900   14.2400 N   0  0  0  0  0  0  0  0  0  0  0  0
    5.9375   -7.5447   17.4884 C   0  0  0  0  0  0  0  0  0  0  0  0
    1.9578   -8.7436   16.6950 C   0  0  0  0  0  0  0  0  0  0  0  0
    3.0186   -8.8618   15.7096 C   0  0  0  0  0  0  0  0  0  0  0  0
   -1.3093  -12.0198   14.7071 C   0  0  0  0  0  0  0  0  0  0  0  0
    1.0843  -11.8979   19.9567 N   0  0  0  0  0  0  0  0  0  0  0  0
   10.7406   -2.9663   18.7448 N   0  0  0  0  0  0  0  0  0  0  0  0
    8.2662   -6.8704   17.4071 C   0  0  0  0  0  0  0  0  0  0  0  0
    6.4226   -9.2802   15.3323 C   0  0  0  0  0  0  0  0  0  0  0  0
    9.6267   -4.9625   17.9739 C   0  0  0  0  0  0  0  0  0  0  0  0
   11.3660   -2.5863   20.9610 N   0  0  0  0  0  0  0  0  0  0  0  0
    0.3635  -10.6057   16.2240 C   0  0  0  0  0  0  0  0  0  0  0  0
    8.7432   -5.6365   17.1171 C   0  0  0  0  0  0  0  0  0  0  0  0
   10.9142   -3.4121   19.9721 C   0  0  0  0  0  0  0  0  0  0  0  0
    0.8537  -11.4885   18.7149 C   0  0  0  0  0  0  0  0  0  0  0  0
   10.5807   -4.7557   20.1689 C   0  0  0  0  0  0  0  0  0  0  0  0
    8.8923   -7.5158   18.4086 C   0  0  0  0  0  0  0  0  0  0  0  0
   10.8558   -5.2148   21.4745 C   0  0  0  0  0  0  0  0  0  0  0  0
   10.1461   -3.6835   17.7617 C   0  0  0  0  0  0  0  0  0  0  0  0
   10.0146   -5.5037   19.1504 C   0  0  0  0  0  0  0  0  0  0  0  0
    1.2474   -9.9774   17.0761 C   0  0  0  0  0  0  0  0  0  0  0  0
   -0.0116  -10.1889   14.9813 C   0  0  0  0  0  0  0  0  0  0  0  0
  1  6  1  0
  1 21  1  0
  2  8  4  0
  2 23  4  0
  3 29  4  0
  3 32  4  0
  4 27  4  0
  4 33  4  0
  5  7  4  0
  5 27  4  0
  6 14  1  0
  6 20  1  0
  7 11  4  0
  7 24  4  0
  8 30  4  0
  9 10  1  0
  9 21  1  0
 10 12  1  0
 10 16  1  0
 11 17  4  0
 12 14  1  0
 13 17  4  0
 13 34  4  0
 15 16  1  0
 15 33  1  0
 18 27  1  0
 19 26  4  0
 19 31  4  0
 20 25  4  0
 20 29  4  0
 22 25  4  0
 22 31  4  0
 22 32  4  0
 23 26  4  0
 24 33  4  0
 24 34  4  0
 26 28  4  0
 28 30  4  0
 28 32  4  0
M  END
$$$$

 Created by Python create_sdf_string function

 34 40  0  0  0  0  0  0  0  0999 V2000
    7.5575   -8.2812   15.6877 C   0  0  0  0  0  0  0  0  0  0  0  0
   11.5455   -2.9813   22.2047 C   0  0  0  0  0  0  0  0  0  0  0  0
    9.7094   -6.9076   19.3072 C   0  0  0  0  0  0  0  0  0  0  0  0
    0.0012  -12.2091   17.9382 N   0  0  0  0  0  0  0  0  0  0  0  0
    7.1303   -7.3701   16.7345 N   0  0  0  0  0  0  0  0  0  0  0  0
   -0.1748  -11.7553   16.7432 C   0  0  0  0  0  0  0  0  0  0  0  0
   11.4092   -4.3408   22.3743 C   0  0  0  0  0  0  0  0  0  0  0  0
    5.0727   -8.7457   14.8389 C   0  0  0  0  0  0  0  0  0  0  0  0
    4.4099   -8.4554   15.9568 N   0  0  0  0  0  0  0  0  0  0  0  0
   -0.9549  -12.4946   15.8821 N   0  0  0  0  0  0  0  0  0  0  0  0
    4.7231   -7.6076   16.7355 C   0  0  0  0  0  0  0  0  0  0  0  0
   -0.8560  -10.8843   14.1799 N   0  0  0  0  0  0  0  0  0  0  0  0
    5.9392   -7.4773   17.4180 C   0  0  0  0  0  0  0  0  0  0  0  0
    1.9885   -8.7422   16.7460 C   0  0  0  0  0  0  0  0  0  0  0  0
    3.1869   -8.8541   15.7367 C   0  0  0  0  0  0  0  0  0  0  0  0
   -1.3868  -12.0651   14.7959 C   0  0  0  0  0  0  0  0  0  0  0  0
    1.0267  -11.7836   19.9553 N   0  0  0  0  0  0  0  0  0  0  0  0
   10.7783   -2.9673   18.7509 N   0  0  0  0  0  0  0  0  0  0  0  0
    8.2426   -6.8629   17.4858 C   0  0  0  0  0  0  0  0  0  0  0  0
    6.5096   -9.3190   15.3659 C   0  0  0  0  0  0  0  0  0  0  0  0
   11.3556   -2.5395   20.9529 N   0  0  0  0  0  0  0  0  0  0  0  0
    0.4021  -10.5741   16.3594 C   0  0  0  0  0  0  0  0  0  0  0  0
    8.7492   -5.7048   17.1396 C   0  0  0  0  0  0  0  0  0  0  0  0
   10.9388   -3.4353   19.8571 C   0  0  0  0  0  0  0  0  0  0  0  0
    0.9607  -11.5032   18.7214 C   0  0  0  0  0  0  0  0  0  0  0  0
    8.8482   -7.5864   18.4535 C   0  0  0  0  0  0  0  0  0  0  0  0
   10.8505   -5.1349   21.4638 C   0  0  0  0  0  0  0  0  0  0  0  0
   10.0499   -3.6451   17.7885 C   0  0  0  0  0  0  0  0  0  0  0  0
   10.0815   -5.5672   19.2031 C   0  0  0  0  0  0  0  0  0  0  0  0
   -0.0367  -10.2238   15.0810 C   0  0  0  0  0  0  0  0  0  0  0  0
    1.5012  -10.4213   18.3638 He  0  0  0  0  0  0  0  0  0  0  0  0
    9.5724   -4.8734   17.9331 He  0  0  0  0  0  0  0  0  0  0  0  0
   10.6535   -4.7894   20.1299 He  0  0  0  0  0  0  0  0  0  0  0  0
    1.3337   -9.9829   17.0463 He  0  0  0  0  0  0  0  0  0  0  0  0
  1  5  1  0
  1  8  1  0
  1 20  1  0
  2  7  4  0
  2 13  4  0
  2 21  4  0
  3 15  1  0
  3 18  2  0
  3 26  4  0
  3 29  4  0
  4  6  4  0
  4 18  3  0
  4 19  1  0
  4 25  4  0
  5 13  1  0
  5 19  1  0
  6 10  4  0
  6 20  1  0
  6 22  4  0
  7 27  4  0
  8  9  1  0
  8 20  1  0
  9 15  1  0
 10 16  4  0
 11 13  1  0
 12 16  3  0
 12 30  4  0
 14 15  1  0
 15 27  3  0
 17 21  2  0
 17 25  1  0
 18 24  4  0
 18 28  4  0
 19 21  2  0
 19 23  4  0
 19 26  4  0
 20 26  2  0
 21 24  4  0
 21 26  3  0
 22 30  4  0
M  END
$$$$

 Created by Python create_sdf_string function

 34 39  0  0  0  0  0  0  0  0999 V2000
    7.5044   -8.2866   15.6899 C   0  0  0  0  0  0  0  0  0  0  0  0
   11.5890   -2.9955   22.1998 C   0  0  0  0  0  0  0  0  0  0  0  0
    9.7419   -6.8863   19.3234 C   0  0  0  0  0  0  0  0  0  0  0  0
    1.5270  -10.3965   18.3083 N   0  0  0  0  0  0  0  0  0  0  0  0
    0.0720  -12.1733   17.9597 N   0  0  0  0  0  0  0  0  0  0  0  0
    7.1683   -7.4039   16.7628 N   0  0  0  0  0  0  0  0  0  0  0  0
   -0.1872  -11.7686   16.7305 C   0  0  0  0  0  0  0  0  0  0  0  0
   11.3699   -4.3365   22.4478 C   0  0  0  0  0  0  0  0  0  0  0  0
    5.2005   -8.7705   14.8724 C   0  0  0  0  0  0  0  0  0  0  0  0
    4.3037   -8.4835   15.9377 N   0  0  0  0  0  0  0  0  0  0  0  0
   -1.0318  -12.4863   15.9326 N   0  0  0  0  0  0  0  0  0  0  0  0
    4.6982   -7.5223   16.7956 C   0  0  0  0  0  0  0  0  0  0  0  0
   -0.8680  -10.8956   14.2725 N   0  0  0  0  0  0  0  0  0  0  0  0
    5.9230   -7.4777   17.4237 C   0  0  0  0  0  0  0  0  0  0  0  0
    1.9942   -8.7539   16.7027 C   0  0  0  0  0  0  0  0  0  0  0  0
    3.0723   -8.8703   15.7336 C   0  0  0  0  0  0  0  0  0  0  0  0
   -1.3502  -12.0359   14.7350 C   0  0  0  0  0  0  0  0  0  0  0  0
    1.0428  -11.8683   19.9744 N   0  0  0  0  0  0  0  0  0  0  0  0
   10.7317   -2.9500   18.7198 N   0  0  0  0  0  0  0  0  0  0  0  0
    8.2488   -6.8628   17.4312 C   0  0  0  0  0  0  0  0  0  0  0  0
    6.4926   -9.3148   15.3407 C   0  0  0  0  0  0  0  0  0  0  0  0
    9.6085   -4.9562   18.0114 C   0  0  0  0  0  0  0  0  0  0  0  0
   11.3940   -2.5634   20.9269 N   0  0  0  0  0  0  0  0  0  0  0  0
    0.4008  -10.6023   16.2669 C   0  0  0  0  0  0  0  0  0  0  0  0
    8.7383   -5.6333   17.1594 C   0  0  0  0  0  0  0  0  0  0  0  0
   10.9235   -3.4130   19.9459 C   0  0  0  0  0  0  0  0  0  0  0  0
    0.8746  -11.4868   18.7339 C   0  0  0  0  0  0  0  0  0  0  0  0
   10.6017   -4.7476   20.1579 C   0  0  0  0  0  0  0  0  0  0  0  0
    8.8565   -7.5273   18.4593 C   0  0  0  0  0  0  0  0  0  0  0  0
   10.9051   -5.1936   21.4502 C   0  0  0  0  0  0  0  0  0  0  0  0
   10.0708   -3.6829   17.7844 C   0  0  0  0  0  0  0  0  0  0  0  0
   10.0143   -5.5114   19.1823 C   0  0  0  0  0  0  0  0  0  0  0  0
    1.2992   -9.9736   17.0911 C   0  0  0  0  0  0  0  0  0  0  0  0
   -0.0111  -10.1989   15.0239 C   0  0  0  0  0  0  0  0  0  0  0  0
  1  6  1  0
  1 21  1  0
  2  8  4  0
  2 23  4  0
  3 29  4  0
  3 32  4  0
  4 27  4  0
  4 33  4  0
  5  7  4  0
  5 27  4  0
  6 14  1  0
  6 20  1  0
  7 11  4  0
  7 24  4  0
  8 30  4  0
  9 10  1  0
  9 21  1  0
 10 12  1  0
 10 16  1  0
 11 17  4  0
 12 14  1  0
 13 17  4  0
 13 34  4  0
 15 16  1  0
 15 33  1  0
 18 27  1  0
 19 26  4  0
 19 31  4  0
 20 25  4  0
 20 29  4  0
 22 25  4  0
 22 31  4  0
 22 32  4  0
 23 26  4  0
 24 33  4  0
 24 34  4  0
 26 28  4  0
 28 30  4  0
 28 32  4  0
M  END
$$$$

 Created by Python create_sdf_string function

 34 43  0  0  0  0  0  0  0  0999 V2000
    7.5425   -8.3004   15.7662 C   0  0  0  0  0  0  0  0  0  0  0  0
   11.5237   -3.0311   22.1668 C   0  0  0  0  0  0  0  0  0  0  0  0
    9.8028   -6.9476   19.3446 C   0  0  0  0  0  0  0  0  0  0  0  0
    1.4774  -10.3773   18.3201 N   0  0  0  0  0  0  0  0  0  0  0  0
    0.0652  -12.1527   18.0205 N   0  0  0  0  0  0  0  0  0  0  0  0
    7.2244   -7.4720   16.7661 N   0  0  0  0  0  0  0  0  0  0  0  0
   -0.2208  -11.7634   16.6295 C   0  0  0  0  0  0  0  0  0  0  0  0
   11.3000   -4.3335   22.4806 C   0  0  0  0  0  0  0  0  0  0  0  0
    5.2191   -8.7482   14.9208 C   0  0  0  0  0  0  0  0  0  0  0  0
    4.3103   -8.5456   15.8601 N   0  0  0  0  0  0  0  0  0  0  0  0
   -1.0762  -12.4541   15.9625 N   0  0  0  0  0  0  0  0  0  0  0  0
    4.6938   -7.5080   16.8010 C   0  0  0  0  0  0  0  0  0  0  0  0
   -0.8275  -10.9159   14.3621 N   0  0  0  0  0  0  0  0  0  0  0  0
    5.9772   -7.5890   17.3301 C   0  0  0  0  0  0  0  0  0  0  0  0
    1.9532   -8.7826   16.7216 C   0  0  0  0  0  0  0  0  0  0  0  0
    3.0947   -8.8764   15.8019 C   0  0  0  0  0  0  0  0  0  0  0  0
   -1.3998  -12.0947   14.6972 C   0  0  0  0  0  0  0  0  0  0  0  0
    1.0893  -11.8493   19.9133 N   0  0  0  0  0  0  0  0  0  0  0  0
   10.7622   -2.8902   18.6579 N   0  0  0  0  0  0  0  0  0  0  0  0
    8.2331   -6.7927   17.4199 C   0  0  0  0  0  0  0  0  0  0  0  0
    6.4955   -9.3782   15.3289 C   0  0  0  0  0  0  0  0  0  0  0  0
    9.5288   -4.9397   17.8999 C   0  0  0  0  0  0  0  0  0  0  0  0
   11.3579   -2.6268   20.8893 N   0  0  0  0  0  0  0  0  0  0  0  0
    0.4302  -10.5624   16.2703 C   0  0  0  0  0  0  0  0  0  0  0  0
    8.7555   -5.6512   17.2511 C   0  0  0  0  0  0  0  0  0  0  0  0
   10.9653   -3.3495   19.9612 N   0  0  0  0  0  0  0  0  0  0  0  0
    0.9928  -11.4642   18.7588 C   0  0  0  0  0  0  0  0  0  0  0  0
   10.5825   -4.7650   20.1505 C   0  0  0  0  0  0  0  0  0  0  0  0
    8.8293   -7.5320   18.4039 C   0  0  0  0  0  0  0  0  0  0  0  0
   10.0436   -3.7582   17.7765 C   0  0  0  0  0  0  0  0  0  0  0  0
   10.0170   -5.5536   19.1641 C   0  0  0  0  0  0  0  0  0  0  0  0
    1.1789  -10.0174   17.0901 C   0  0  0  0  0  0  0  0  0  0  0  0
    0.1077  -10.2239   14.9598 C   0  0  0  0  0  0  0  0  0  0  0  0
   10.9566   -5.2283   21.5023 He  0  0  0  0  0  0  0  0  0  0  0  0
  1  6  1  0
  1 21  1  0
  1 23  3  0
  1 26  1  0
  2  8  4  0
  2 23  4  0
  3 17  1  0
  3 29  4  0
  3 31  4  0
  4 14  4  0
  4 27  4  0
  5  7  4  0
  5 27  4  0
  6 14  1  0
  6 20  1  0
  7 11  4  0
  7 15  4  0
  7 24  4  0
  9 10  1  0
  9 11  2  0
 10 16  1  0
 11 17  4  0
 12 14  1  0
 13 16  4  0
 13 17  4  0
 13 26  3  0
 13 33  4  0
 14 23  4  0
 15 16  1  0
 15 32  1  0
 18 27  1  0
 19 26  4  0
 19 30  4  0
 20 25  4  0
 20 29  4  0
 22 23  3  0
 22 25  4  0
 22 30  4  0
 22 31  4  0
 23 26  4  0
 24 32  4  0
 24 33  4  0
 26 28  4  0
M  END
$$$$

 Created by Python create_sdf_string function

 34 39  0  0  0  0  0  0  0  0999 V2000
    7.5235   -8.3349   15.7163 C   0  0  0  0  0  0  0  0  0  0  0  0
   11.5493   -3.0108   22.1596 C   0  0  0  0  0  0  0  0  0  0  0  0
    9.7537   -6.9035   19.3218 C   0  0  0  0  0  0  0  0  0  0  0  0
    1.4807  -10.3883   18.2964 N   0  0  0  0  0  0  0  0  0  0  0  0
    0.0693  -12.1506   17.9636 N   0  0  0  0  0  0  0  0  0  0  0  0
    7.1850   -7.4774   16.7718 N   0  0  0  0  0  0  0  0  0  0  0  0
   -0.2147  -11.7532   16.7215 C   0  0  0  0  0  0  0  0  0  0  0  0
   11.3167   -4.3569   22.4506 C   0  0  0  0  0  0  0  0  0  0  0  0
    5.2253   -8.7798   14.8982 C   0  0  0  0  0  0  0  0  0  0  0  0
    4.2913   -8.5360   15.9222 N   0  0  0  0  0  0  0  0  0  0  0  0
   -1.0825  -12.4623   15.9555 N   0  0  0  0  0  0  0  0  0  0  0  0
    4.6627   -7.5149   16.7806 C   0  0  0  0  0  0  0  0  0  0  0  0
   -0.8180  -10.9205   14.2581 N   0  0  0  0  0  0  0  0  0  0  0  0
    5.9369   -7.5594   17.3847 C   0  0  0  0  0  0  0  0  0  0  0  0
    1.9664   -8.7782   16.6940 C   0  0  0  0  0  0  0  0  0  0  0  0
    3.0571   -8.8838   15.7573 C   0  0  0  0  0  0  0  0  0  0  0  0
   -1.3627  -12.0355   14.7333 C   0  0  0  0  0  0  0  0  0  0  0  0
    1.1149  -11.8832   19.9503 N   0  0  0  0  0  0  0  0  0  0  0  0
   10.7212   -2.9582   18.7013 N   0  0  0  0  0  0  0  0  0  0  0  0
    8.2570   -6.8756   17.4270 C   0  0  0  0  0  0  0  0  0  0  0  0
    6.5083   -9.3403   15.3479 C   0  0  0  0  0  0  0  0  0  0  0  0
    9.5951   -4.9629   18.0203 C   0  0  0  0  0  0  0  0  0  0  0  0
   11.3799   -2.5713   20.8919 N   0  0  0  0  0  0  0  0  0  0  0  0
    0.3848  -10.6213   16.2163 C   0  0  0  0  0  0  0  0  0  0  0  0
    8.7130   -5.6256   17.1760 C   0  0  0  0  0  0  0  0  0  0  0  0
   10.9165   -3.4145   19.9334 C   0  0  0  0  0  0  0  0  0  0  0  0
    0.8833  -11.4785   18.7275 C   0  0  0  0  0  0  0  0  0  0  0  0
   10.6046   -4.7672   20.1627 C   0  0  0  0  0  0  0  0  0  0  0  0
    8.8723   -7.5254   18.4411 C   0  0  0  0  0  0  0  0  0  0  0  0
   10.8957   -5.2142   21.4668 C   0  0  0  0  0  0  0  0  0  0  0  0
   10.0644   -3.6868   17.7684 C   0  0  0  0  0  0  0  0  0  0  0  0
   10.0160   -5.5237   19.1862 C   0  0  0  0  0  0  0  0  0  0  0  0
    1.2629   -9.9910   17.0756 C   0  0  0  0  0  0  0  0  0  0  0  0
    0.0545  -10.2288   14.9576 C   0  0  0  0  0  0  0  0  0  0  0  0
  1  6  1  0
  1 21  1  0
  2  8  4  0
  2 23  4  0
  3 29  4  0
  3 32  4  0
  4 27  4  0
  4 33  4  0
  5  7  4  0
  5 27  4  0
  6 14  1  0
  6 20  1  0
  7 11  4  0
  7 24  4  0
  8 30  4  0
  9 10  1  0
  9 21  1  0
 10 12  1  0
 10 16  1  0
 11 17  4  0
 12 14  1  0
 13 17  4  0
 13 34  4  0
 15 16  1  0
 15 33  1  0
 18 27  1  0
 19 26  4  0
 19 31  4  0
 20 25  4  0
 20 29  4  0
 22 25  4  0
 22 31  4  0
 22 32  4  0
 23 26  4  0
 24 33  4  0
 24 34  4  0
 26 28  4  0
 28 30  4  0
 28 32  4  0
M  END
$$$$

 Created by Python create_sdf_string function

 34 41  0  0  0  0  0  0  0  0999 V2000
    7.4764   -8.2600   15.7589 C   0  0  0  0  0  0  0  0  0  0  0  0
    9.7644   -6.9487   19.3244 C   0  0  0  0  0  0  0  0  0  0  0  0
    1.4212  -10.4047   18.2903 N   0  0  0  0  0  0  0  0  0  0  0  0
    0.1016  -12.1542   17.9960 N   0  0  0  0  0  0  0  0  0  0  0  0
    7.2134   -7.4182   16.8145 N   0  0  0  0  0  0  0  0  0  0  0  0
   -0.0969  -11.7705   16.6945 C   0  0  0  0  0  0  0  0  0  0  0  0
   11.2353   -4.4150   22.5097 C   0  0  0  0  0  0  0  0  0  0  0  0
    5.2724   -8.7957   14.8381 C   0  0  0  0  0  0  0  0  0  0  0  0
    4.3590   -8.5929   15.8714 N   0  0  0  0  0  0  0  0  0  0  0  0
   -1.0409  -12.5175   15.9591 N   0  0  0  0  0  0  0  0  0  0  0  0
    4.6858   -7.5160   16.7708 C   0  0  0  0  0  0  0  0  0  0  0  0
   -0.7970  -10.8694   14.3374 N   0  0  0  0  0  0  0  0  0  0  0  0
    5.9076   -7.5406   17.4842 C   0  0  0  0  0  0  0  0  0  0  0  0
    2.0064   -8.7500   16.7047 C   0  0  0  0  0  0  0  0  0  0  0  0
   -1.4984  -12.0257   14.7657 C   0  0  0  0  0  0  0  0  0  0  0  0
    1.0667  -11.8393   19.9411 N   0  0  0  0  0  0  0  0  0  0  0  0
   10.6760   -2.9207   18.7319 N   0  0  0  0  0  0  0  0  0  0  0  0
    8.2036   -6.9502   17.4754 C   0  0  0  0  0  0  0  0  0  0  0  0
    6.5480   -9.3468   15.2661 C   0  0  0  0  0  0  0  0  0  0  0  0
    9.6096   -5.0658   18.0083 S   0  0  0  0  0  0  0  0  0  0  0  0
   11.3566   -2.5227   20.8815 N   0  0  0  0  0  0  0  0  0  0  0  0
    0.4796  -10.6026   16.2981 C   0  0  0  0  0  0  0  0  0  0  0  0
    8.7642   -5.6490   17.1168 C   0  0  0  0  0  0  0  0  0  0  0  0
   10.9178   -3.2839   19.9377 C   0  0  0  0  0  0  0  0  0  0  0  0
    0.9360  -11.4669   18.6691 C   0  0  0  0  0  0  0  0  0  0  0  0
   10.5869   -4.8447   20.1755 C   0  0  0  0  0  0  0  0  0  0  0  0
    8.8273   -7.4916   18.3854 C   0  0  0  0  0  0  0  0  0  0  0  0
   10.8453   -5.1903   21.6024 C   0  0  0  0  0  0  0  0  0  0  0  0
   10.0013   -3.6649   17.7806 C   0  0  0  0  0  0  0  0  0  0  0  0
   10.0598   -5.5250   19.1647 C   0  0  0  0  0  0  0  0  0  0  0  0
    1.3102   -9.9943   17.0783 C   0  0  0  0  0  0  0  0  0  0  0  0
    0.0899  -10.2811   14.9209 C   0  0  0  0  0  0  0  0  0  0  0  0
   11.4933   -2.9807   22.2351 He  0  0  0  0  0  0  0  0  0  0  0  0
    3.0271   -8.9475   15.8154 He  0  0  0  0  0  0  0  0  0  0  0  0
  1  5  1  0
  1 19  1  0
  2 27  4  0
  2 30  4  0
  3 17  4  0
  3 25  4  0
  3 31  4  0
  4  6  4  0
  4 25  4  0
  5 13  1  0
  5 18  1  0
  6 10  4  0
  6 22  4  0
  7 27  4  0
  7 28  4  0
  8  9  1  0
  8 19  1  0
  9 11  1  0
  9 13  4  0
 10 15  4  0
 10 28  1  0
 11 13  1  0
 12 15  4  0
 12 32  4  0
 14 31  1  0
 16 25  1  0
 17 24  4  0
 17 29  4  0
 18 23  4  0
 18 27  2  0
 20 23  4  0
 20 29  4  0
 20 30  4  0
 21 24  1  0
 21 25  1  0
 21 26  1  0
 22 31  4  0
 22 32  4  0
 23 32  1  0
 24 26  4  0
 26 28  4  0
M  END
$$$$

 Created by Python create_sdf_string function

 34 39  0  0  0  0  0  0  0  0999 V2000
    7.4775   -8.2838   15.7135 C   0  0  0  0  0  0  0  0  0  0  0  0
   11.5164   -2.9936   22.2348 C   0  0  0  0  0  0  0  0  0  0  0  0
    9.7492   -6.9052   19.3209 C   0  0  0  0  0  0  0  0  0  0  0  0
    1.4911  -10.3752   18.2919 N   0  0  0  0  0  0  0  0  0  0  0  0
    0.1112  -12.1620   17.9517 N   0  0  0  0  0  0  0  0  0  0  0  0
    7.1539   -7.4541   16.8090 N   0  0  0  0  0  0  0  0  0  0  0  0
   -0.1637  -11.7623   16.7086 C   0  0  0  0  0  0  0  0  0  0  0  0
   11.2648   -4.3438   22.5219 C   0  0  0  0  0  0  0  0  0  0  0  0
    5.2364   -8.8014   14.8558 C   0  0  0  0  0  0  0  0  0  0  0  0
    4.3228   -8.6022   15.9347 N   0  0  0  0  0  0  0  0  0  0  0  0
   -1.0560  -12.4672   15.9483 N   0  0  0  0  0  0  0  0  0  0  0  0
    4.6733   -7.5226   16.7553 C   0  0  0  0  0  0  0  0  0  0  0  0
   -0.8290  -10.8967   14.2785 N   0  0  0  0  0  0  0  0  0  0  0  0
    5.9104   -7.5555   17.4465 C   0  0  0  0  0  0  0  0  0  0  0  0
    2.0106   -8.7602   16.6927 C   0  0  0  0  0  0  0  0  0  0  0  0
    3.0708   -8.9034   15.7914 C   0  0  0  0  0  0  0  0  0  0  0  0
   -1.4166  -11.9904   14.7657 C   0  0  0  0  0  0  0  0  0  0  0  0
    1.0885  -11.8534   19.9550 N   0  0  0  0  0  0  0  0  0  0  0  0
   10.6631   -2.9626   18.7468 N   0  0  0  0  0  0  0  0  0  0  0  0
    8.2411   -6.8893   17.4441 C   0  0  0  0  0  0  0  0  0  0  0  0
    6.5344   -9.3192   15.2942 C   0  0  0  0  0  0  0  0  0  0  0  0
    9.5952   -4.9816   18.0146 C   0  0  0  0  0  0  0  0  0  0  0  0
   11.3633   -2.5673   20.9679 N   0  0  0  0  0  0  0  0  0  0  0  0
    0.4424  -10.6270   16.2058 C   0  0  0  0  0  0  0  0  0  0  0  0
    8.7378   -5.6495   17.1426 C   0  0  0  0  0  0  0  0  0  0  0  0
   10.8809   -3.4124   19.9776 C   0  0  0  0  0  0  0  0  0  0  0  0
    0.8927  -11.4629   18.7133 C   0  0  0  0  0  0  0  0  0  0  0  0
   10.5728   -4.7600   20.2065 C   0  0  0  0  0  0  0  0  0  0  0  0
    8.8680   -7.5043   18.4602 C   0  0  0  0  0  0  0  0  0  0  0  0
   10.8412   -5.2138   21.5084 C   0  0  0  0  0  0  0  0  0  0  0  0
   10.0234   -3.6924   17.7774 C   0  0  0  0  0  0  0  0  0  0  0  0
   10.0124   -5.5223   19.1985 C   0  0  0  0  0  0  0  0  0  0  0  0
    1.3093   -9.9804   17.0666 C   0  0  0  0  0  0  0  0  0  0  0  0
    0.0991  -10.2485   14.9602 C   0  0  0  0  0  0  0  0  0  0  0  0
  1  6  1  0
  1 21  1  0
  2  8  4  0
  2 23  4  0
  3 29  4  0
  3 32  4  0
  4 27  4  0
  4 33  4  0
  5  7  4  0
  5 27  4  0
  6 14  1  0
  6 20  1  0
  7 11  4  0
  7 24  4  0
  8 30  4  0
  9 10  1  0
  9 21  1  0
 10 12  1  0
 10 16  1  0
 11 17  4  0
 12 14  1  0
 13 17  4  0
 13 34  4  0
 15 16  1  0
 15 33  1  0
 18 27  1  0
 19 26  4  0
 19 31  4  0
 20 25  4  0
 20 29  4  0
 22 25  4  0
 22 31  4  0
 22 32  4  0
 23 26  4  0
 24 33  4  0
 24 34  4  0
 26 28  4  0
 28 30  4  0
 28 32  4  0
M  END
$$$$

 Created by Python create_sdf_string function

 34 48  0  0  0  0  0  0  0  0999 V2000
    7.4929   -8.3314   15.7451 C   0  0  0  0  0  0  0  0  0  0  0  0
   11.5623   -2.9367   22.2305 C   0  0  0  0  0  0  0  0  0  0  0  0
    9.8373   -6.9522   19.3452 C   0  0  0  0  0  0  0  0  0  0  0  0
    1.4573  -10.3070   18.3392 N   0  0  0  0  0  0  0  0  0  0  0  0
   -0.0238  -12.1575   17.9517 N   0  0  0  0  0  0  0  0  0  0  0  0
    7.1801   -7.4303   16.8095 N   0  0  0  0  0  0  0  0  0  0  0  0
   -0.2465  -11.8281   16.7473 C   0  0  0  0  0  0  0  0  0  0  0  0
   11.2240   -4.4190   22.4844 C   0  0  0  0  0  0  0  0  0  0  0  0
    5.1986   -8.8083   14.8968 C   0  0  0  0  0  0  0  0  0  0  0  0
    4.3487   -8.5569   15.8490 N   0  0  0  0  0  0  0  0  0  0  0  0
   -1.0530  -12.5427   15.9416 N   0  0  0  0  0  0  0  0  0  0  0  0
    4.6840   -7.4876   16.6928 C   0  0  0  0  0  0  0  0  0  0  0  0
   -0.7748  -10.8315   14.2796 N   0  0  0  0  0  0  0  0  0  0  0  0
    5.8873   -7.5748   17.5678 C   0  0  0  0  0  0  0  0  0  0  0  0
    2.0036   -8.7793   16.7469 C   0  0  0  0  0  0  0  0  0  0  0  0
    3.0905   -8.8439   15.8364 C   0  0  0  0  0  0  0  0  0  0  0  0
   -1.3704  -11.9827   14.8351 C   0  0  0  0  0  0  0  0  0  0  0  0
    1.1026  -11.7691   19.9137 N   0  0  0  0  0  0  0  0  0  0  0  0
   10.6940   -2.9909   18.7773 N   0  0  0  0  0  0  0  0  0  0  0  0
    8.2010   -6.8462   17.4464 C   0  0  0  0  0  0  0  0  0  0  0  0
    6.5330   -9.3252   15.2888 C   0  0  0  0  0  0  0  0  0  0  0  0
    9.6074   -4.9398   18.0105 C   0  0  0  0  0  0  0  0  0  0  0  0
   11.4283   -2.5841   20.9555 N   0  0  0  0  0  0  0  0  0  0  0  0
    0.3455  -10.6594   16.1944 C   0  0  0  0  0  0  0  0  0  0  0  0
    8.7535   -5.6887   17.1552 C   0  0  0  0  0  0  0  0  0  0  0  0
   10.8953   -3.3938   20.0365 C   0  0  0  0  0  0  0  0  0  0  0  0
    0.7783  -11.4378   18.7027 C   0  0  0  0  0  0  0  0  0  0  0  0
   10.5999   -4.7427   20.1911 C   0  0  0  0  0  0  0  0  0  0  0  0
    8.8501   -7.3700   18.5470 C   0  0  0  0  0  0  0  0  0  0  0  0
   10.8289   -5.1526   21.4939 C   0  0  0  0  0  0  0  0  0  0  0  0
   10.0257   -3.7514   17.7702 C   0  0  0  0  0  0  0  0  0  0  0  0
   10.0219   -5.5652   19.2110 C   0  0  0  0  0  0  0  0  0  0  0  0
    1.3010   -9.9686   17.1033 C   0  0  0  0  0  0  0  0  0  0  0  0
    0.1104  -10.2631   14.9574 C   0  0  0  0  0  0  0  0  0  0  0  0
  1  6  1  0
  1 21  1  0
  2  8  4  0
  2 23  4  0
  3  7  1  0
  3 29  4  0
  3 32  4  0
  4 21  1  0
  4 27  4  0
  4 33  4  0
  5  7  4  0
  5 27  4  0
  6  7  2  0
  6 14  1  0
  6 20  1  0
  7 11  4  0
  7 24  4  0
  8 15  4  0
  8 30  4  0
  9 10  1  0
  9 21  1  0
 10 12  1  0
 10 13  1  0
 10 16  1  0
 11 17  4  0
 12 14  1  0
 13 17  4  0
 13 34  4  0
 14 32  2  0
 15 16  1  0
 15 33  1  0
 16 29  1  0
 18 27  1  0
 19 26  4  0
 19 31  4  0
 20 25  4  0
 20 29  4  0
 21 28  2  0
 22 25  4  0
 22 31  4  0
 22 32  4  0
 23 26  4  0
 24 33  4  0
 24 34  4  0
 26 28  4  0
 28 30  4  0
 28 32  4  0
 32 33  4  0
M  END
$$$$

 Created by Python create_sdf_string function

 34 39  0  0  0  0  0  0  0  0999 V2000
    7.4771   -8.3244   15.7452 C   0  0  0  0  0  0  0  0  0  0  0  0
   11.5631   -3.0048   22.2326 C   0  0  0  0  0  0  0  0  0  0  0  0
    9.7639   -6.8902   19.3643 C   0  0  0  0  0  0  0  0  0  0  0  0
    1.4165  -10.3609   18.2978 N   0  0  0  0  0  0  0  0  0  0  0  0
   -0.0012  -12.1379   17.9662 N   0  0  0  0  0  0  0  0  0  0  0  0
    7.1424   -7.4470   16.8200 N   0  0  0  0  0  0  0  0  0  0  0  0
   -0.2416  -11.7826   16.7195 C   0  0  0  0  0  0  0  0  0  0  0  0
   11.2683   -4.3464   22.5123 C   0  0  0  0  0  0  0  0  0  0  0  0
    5.2121   -8.8291   14.8792 C   0  0  0  0  0  0  0  0  0  0  0  0
    4.3348   -8.5512   15.9288 N   0  0  0  0  0  0  0  0  0  0  0  0
   -1.0945  -12.4829   15.9299 N   0  0  0  0  0  0  0  0  0  0  0  0
    4.6880   -7.4681   16.7089 C   0  0  0  0  0  0  0  0  0  0  0  0
   -0.7954  -10.8911   14.2694 N   0  0  0  0  0  0  0  0  0  0  0  0
    5.8904   -7.5824   17.4924 C   0  0  0  0  0  0  0  0  0  0  0  0
    1.9967   -8.7813   16.7035 C   0  0  0  0  0  0  0  0  0  0  0  0
    3.0691   -8.8430   15.7878 C   0  0  0  0  0  0  0  0  0  0  0  0
   -1.3539  -11.9777   14.7694 C   0  0  0  0  0  0  0  0  0  0  0  0
    1.0438  -11.8149   19.9434 N   0  0  0  0  0  0  0  0  0  0  0  0
   10.6853   -2.9755   18.7682 N   0  0  0  0  0  0  0  0  0  0  0  0
    8.2303   -6.8669   17.4724 C   0  0  0  0  0  0  0  0  0  0  0  0
    6.5006   -9.3255   15.3042 C   0  0  0  0  0  0  0  0  0  0  0  0
    9.6051   -4.9723   18.0316 C   0  0  0  0  0  0  0  0  0  0  0  0
   11.4091   -2.5803   20.9592 N   0  0  0  0  0  0  0  0  0  0  0  0
    0.3875  -10.6428   16.2157 C   0  0  0  0  0  0  0  0  0  0  0  0
    8.7373   -5.6446   17.1706 C   0  0  0  0  0  0  0  0  0  0  0  0
   10.9103   -3.4128   19.9959 C   0  0  0  0  0  0  0  0  0  0  0  0
    0.7993  -11.4449   18.7139 C   0  0  0  0  0  0  0  0  0  0  0  0
   10.5847   -4.7441   20.2110 C   0  0  0  0  0  0  0  0  0  0  0  0
    8.8421   -7.4614   18.5062 C   0  0  0  0  0  0  0  0  0  0  0  0
   10.8361   -5.1913   21.5112 C   0  0  0  0  0  0  0  0  0  0  0  0
   10.0595   -3.6874   17.8089 C   0  0  0  0  0  0  0  0  0  0  0  0
   10.0244   -5.5102   19.2160 C   0  0  0  0  0  0  0  0  0  0  0  0
    1.2545   -9.9873   17.0673 C   0  0  0  0  0  0  0  0  0  0  0  0
    0.0851  -10.2575   14.9738 C   0  0  0  0  0  0  0  0  0  0  0  0
  1  6  1  0
  1 21  1  0
  2  8  4  0
  2 23  4  0
  3 29  4  0
  3 32  4  0
  4 27  4  0
  4 33  4  0
  5  7  4  0
  5 27  4  0
  6 14  1  0
  6 20  1  0
  7 11  4  0
  7 24  4  0
  8 30  4  0
  9 10  1  0
  9 21  1  0
 10 12  1  0
 10 16  1  0
 11 17  4  0
 12 14  1  0
 13 17  4  0
 13 34  4  0
 15 16  1  0
 15 33  1  0
 18 27  1  0
 19 26  4  0
 19 31  4  0
 20 25  4  0
 20 29  4  0
 22 25  4  0
 22 31  4  0
 22 32  4  0
 23 26  4  0
 24 33  4  0
 24 34  4  0
 26 28  4  0
 28 30  4  0
 28 32  4  0
M  END
$$$$

 Created by Python create_sdf_string function

 34 44  0  0  0  0  0  0  0  0999 V2000
    7.4092   -8.4171   15.7712 C   0  0  0  0  0  0  0  0  0  0  0  0
   11.6397   -2.9939   22.2612 C   0  0  0  0  0  0  0  0  0  0  0  0
    9.7507   -6.9365   19.3458 C   0  0  0  0  0  0  0  0  0  0  0  0
    1.3818  -10.3727   18.2674 N   0  0  0  0  0  0  0  0  0  0  0  0
   -0.0160  -12.1740   18.0065 N   0  0  0  0  0  0  0  0  0  0  0  0
    7.0866   -7.3935   16.8081 N   0  0  0  0  0  0  0  0  0  0  0  0
   -0.2028  -11.7721   16.6968 C   0  0  0  0  0  0  0  0  0  0  0  0
   11.3138   -4.3504   22.5615 C   0  0  0  0  0  0  0  0  0  0  0  0
    5.2509   -8.8320   14.8632 C   0  0  0  0  0  0  0  0  0  0  0  0
    4.2883   -8.5368   15.9099 N   0  0  0  0  0  0  0  0  0  0  0  0
   -1.1213  -12.5202   15.9620 N   0  0  0  0  0  0  0  0  0  0  0  0
    4.6401   -7.5007   16.7093 C   0  0  0  0  0  0  0  0  0  0  0  0
   -0.8030  -10.9672   14.3284 N   0  0  0  0  0  0  0  0  0  0  0  0
    5.9586   -7.6547   17.4746 C   0  0  0  0  0  0  0  0  0  0  0  0
    2.0863   -8.7414   16.6705 C   0  0  0  0  0  0  0  0  0  0  0  0
    3.0660   -8.8818   15.7565 C   0  0  0  0  0  0  0  0  0  0  0  0
   -1.3498  -12.0394   14.7744 C   0  0  0  0  0  0  0  0  0  0  0  0
    1.0713  -11.8541   19.9932 N   0  0  0  0  0  0  0  0  0  0  0  0
   10.6811   -2.9750   18.7815 N   0  0  0  0  0  0  0  0  0  0  0  0
    8.2401   -6.8633   17.4837 C   0  0  0  0  0  0  0  0  0  0  0  0
    6.4450   -9.3698   15.2597 C   0  0  0  0  0  0  0  0  0  0  0  0
    9.6547   -4.9958   18.0525 C   0  0  0  0  0  0  0  0  0  0  0  0
   11.3890   -2.5823   20.9718 N   0  0  0  0  0  0  0  0  0  0  0  0
    0.4127  -10.6375   16.1789 C   0  0  0  0  0  0  0  0  0  0  0  0
    8.7624   -5.6435   17.1514 C   0  0  0  0  0  0  0  0  0  0  0  0
   10.9127   -3.3698   19.9444 C   0  0  0  0  0  0  0  0  0  0  0  0
    0.8279  -11.4350   18.7121 C   0  0  0  0  0  0  0  0  0  0  0  0
   10.5497   -4.7637   20.2139 C   0  0  0  0  0  0  0  0  0  0  0  0
    8.8118   -7.4363   18.5436 C   0  0  0  0  0  0  0  0  0  0  0  0
   10.8670   -5.2574   21.4431 C   0  0  0  0  0  0  0  0  0  0  0  0
   10.0735   -3.6873   17.8250 C   0  0  0  0  0  0  0  0  0  0  0  0
   10.0729   -5.5627   19.2457 C   0  0  0  0  0  0  0  0  0  0  0  0
    1.3147  -10.0566   17.1090 C   0  0  0  0  0  0  0  0  0  0  0  0
    0.1130  -10.2803   14.9387 C   0  0  0  0  0  0  0  0  0  0  0  0
  1  6  1  0
  1 21  1  0
  2  8  4  0
  2 20  4  0
  2 23  4  0
  3 29  4  0
  3 32  4  0
  4 15  4  0
  4 27  4  0
  4 33  4  0
  5  7  4  0
  5 27  4  0
  6 14  1  0
  6 19  1  0
  6 20  1  0
  7 11  4  0
  7 24  4  0
  8 30  4  0
  9 10  1  0
  9 21  1  0
 10 12  1  0
 10 16  1  0
 11 17  4  0
 12 14  1  0
 13 17  4  0
 13 34  4  0
 14 34  4  0
 15 16  1  0
 15 33  2  0
 18 27  1  0
 19 26  4  0
 19 31  4  0
 20 25  4  0
 20 29  4  0
 22 25  4  0
 22 31  4  0
 22 32  4  0
 23 26  4  0
 24 33  4  0
 24 34  4  0
 26 28  4  0
 27 34  1  0
 28 30  2  0
 28 32  4  0
M  END
$$$$

 Created by Python create_sdf_string function

 34 39  0  0  0  0  0  0  0  0999 V2000
    7.4325   -8.3897   15.7741 C   0  0  0  0  0  0  0  0  0  0  0  0
   11.6246   -3.0149   22.2451 C   0  0  0  0  0  0  0  0  0  0  0  0
    9.7264   -6.9046   19.3754 C   0  0  0  0  0  0  0  0  0  0  0  0
    1.4307  -10.3952   18.2879 N   0  0  0  0  0  0  0  0  0  0  0  0
   -0.0014  -12.1489   17.9773 N   0  0  0  0  0  0  0  0  0  0  0  0
    7.1385   -7.4385   16.7968 N   0  0  0  0  0  0  0  0  0  0  0  0
   -0.2359  -11.7760   16.7186 C   0  0  0  0  0  0  0  0  0  0  0  0
   11.3271   -4.3747   22.5359 C   0  0  0  0  0  0  0  0  0  0  0  0
    5.1856   -8.8294   14.8606 C   0  0  0  0  0  0  0  0  0  0  0  0
    4.3053   -8.5509   15.9269 N   0  0  0  0  0  0  0  0  0  0  0  0
   -1.1073  -12.4791   15.9507 N   0  0  0  0  0  0  0  0  0  0  0  0
    4.6964   -7.4976   16.7359 C   0  0  0  0  0  0  0  0  0  0  0  0
   -0.7994  -10.9677   14.2568 N   0  0  0  0  0  0  0  0  0  0  0  0
    5.9112   -7.6453   17.4705 C   0  0  0  0  0  0  0  0  0  0  0  0
    2.0268   -8.8167   16.6808 C   0  0  0  0  0  0  0  0  0  0  0  0
    3.0512   -8.8602   15.7079 C   0  0  0  0  0  0  0  0  0  0  0  0
   -1.3598  -12.0450   14.7622 C   0  0  0  0  0  0  0  0  0  0  0  0
    1.0434  -11.8493   19.9853 N   0  0  0  0  0  0  0  0  0  0  0  0
   10.6829   -2.9647   18.7761 N   0  0  0  0  0  0  0  0  0  0  0  0
    8.2378   -6.8683   17.4648 C   0  0  0  0  0  0  0  0  0  0  0  0
    6.4531   -9.3662   15.3068 C   0  0  0  0  0  0  0  0  0  0  0  0
    9.6214   -4.9690   18.0359 C   0  0  0  0  0  0  0  0  0  0  0  0
   11.4089   -2.5707   20.9729 N   0  0  0  0  0  0  0  0  0  0  0  0
    0.3977  -10.6574   16.1889 C   0  0  0  0  0  0  0  0  0  0  0  0
    8.7568   -5.6494   17.1712 C   0  0  0  0  0  0  0  0  0  0  0  0
   10.9090   -3.4059   19.9990 C   0  0  0  0  0  0  0  0  0  0  0  0
    0.8073  -11.4682   18.7304 C   0  0  0  0  0  0  0  0  0  0  0  0
   10.6070   -4.7478   20.2251 C   0  0  0  0  0  0  0  0  0  0  0  0
    8.8242   -7.4820   18.5119 C   0  0  0  0  0  0  0  0  0  0  0  0
   10.8808   -5.2175   21.5272 C   0  0  0  0  0  0  0  0  0  0  0  0
   10.0772   -3.6867   17.8199 C   0  0  0  0  0  0  0  0  0  0  0  0
   10.0236   -5.5213   19.2269 C   0  0  0  0  0  0  0  0  0  0  0  0
    1.2737  -10.0065   17.0515 C   0  0  0  0  0  0  0  0  0  0  0  0
    0.0851  -10.3002   14.9360 C   0  0  0  0  0  0  0  0  0  0  0  0
  1  6  1  0
  1 21  1  0
  2  8  4  0
  2 23  4  0
  3 29  4  0
  3 32  4  0
  4 27  4  0
  4 33  4  0
  5  7  4  0
  5 27  4  0
  6 14  1  0
  6 20  1  0
  7 11  4  0
  7 24  4  0
  8 30  4  0
  9 10  1  0
  9 21  1  0
 10 12  1  0
 10 16  1  0
 11 17  4  0
 12 14  1  0
 13 17  4  0
 13 34  4  0
 15 16  1  0
 15 33  1  0
 18 27  1  0
 19 26  4  0
 19 31  4  0
 20 25  4  0
 20 29  4  0
 22 25  4  0
 22 31  4  0
 22 32  4  0
 23 26  4  0
 24 33  4  0
 24 34  4  0
 26 28  4  0
 28 30  4  0
 28 32  4  0
M  END
$$$$

 Created by Python create_sdf_string function

 34 35  0  0  0  0  0  0  0  0999 V2000
    7.4184   -8.3636   15.8139 C   0  0  0  0  0  0  0  0  0  0  0  0
   11.6521   -3.0197   22.2910 C   0  0  0  0  0  0  0  0  0  0  0  0
    9.7024   -6.9302   19.3744 C   0  0  0  0  0  0  0  0  0  0  0  0
    1.3987  -10.3577   18.3209 N   0  0  0  0  0  0  0  0  0  0  0  0
   -0.0202  -12.1495   17.9112 N   0  0  0  0  0  0  0  0  0  0  0  0
   -0.2174  -11.7586   16.7306 C   0  0  0  0  0  0  0  0  0  0  0  0
   11.3605   -4.2723   22.5507 C   0  0  0  0  0  0  0  0  0  0  0  0
    5.2164   -8.8602   14.8605 C   0  0  0  0  0  0  0  0  0  0  0  0
    4.3013   -8.5853   15.9465 N   0  0  0  0  0  0  0  0  0  0  0  0
   -1.1509  -12.4895   15.9288 N   0  0  0  0  0  0  0  0  0  0  0  0
    4.7005   -7.4907   16.7336 C   0  0  0  0  0  0  0  0  0  0  0  0
   -0.8497  -11.0275   14.2485 N   0  0  0  0  0  0  0  0  0  0  0  0
    5.9077   -7.6668   17.4533 C   0  0  0  0  0  0  0  0  0  0  0  0
    1.9978   -8.8373   16.7235 C   0  0  0  0  0  0  0  0  0  0  0  0
    3.0411   -8.8065   15.7173 C   0  0  0  0  0  0  0  0  0  0  0  0
   -1.3637  -12.0540   14.7283 C   0  0  0  0  0  0  0  0  0  0  0  0
    1.0970  -11.8129   19.9792 N   0  0  0  0  0  0  0  0  0  0  0  0
   10.6781   -3.0032   18.8392 N   0  0  0  0  0  0  0  0  0  0  0  0
    8.2177   -6.8938   17.4812 C   0  0  0  0  0  0  0  0  0  0  0  0
    6.4615   -9.3585   15.2896 C   0  0  0  0  0  0  0  0  0  0  0  0
    9.5404   -4.9779   17.9877 C   0  0  0  0  0  0  0  0  0  0  0  0
   11.3562   -2.5530   20.9439 N   0  0  0  0  0  0  0  0  0  0  0  0
    0.4114  -10.6409   16.2020 C   0  0  0  0  0  0  0  0  0  0  0  0
    8.7947   -5.6090   17.2020 C   0  0  0  0  0  0  0  0  0  0  0  0
   10.8825   -3.4107   20.0566 C   0  0  0  0  0  0  0  0  0  0  0  0
    0.7792  -11.5040   18.7155 C   0  0  0  0  0  0  0  0  0  0  0  0
   10.5991   -4.8083   20.2683 C   0  0  0  0  0  0  0  0  0  0  0  0
    8.8369   -7.4112   18.5384 C   0  0  0  0  0  0  0  0  0  0  0  0
   10.8582   -5.2872   21.4493 C   0  0  0  0  0  0  0  0  0  0  0  0
   10.1518   -3.6685   17.8342 C   0  0  0  0  0  0  0  0  0  0  0  0
   10.0545   -5.4793   19.2076 C   0  0  0  0  0  0  0  0  0  0  0  0
    1.3037   -9.9772   17.0169 C   0  0  0  0  0  0  0  0  0  0  0  0
    0.0804  -10.3435   14.9490 C   0  0  0  0  0  0  0  0  0  0  0  0
    7.0689   -7.4389   16.8343 He  0  0  0  0  0  0  0  0  0  0  0  0
  1 20  1  0
  2  7  4  0
  3 28  4  0
  3 31  4  0
  4 26  4  0
  4 32  4  0
  5  6  4  0
  5 26  4  0
  6 10  4  0
  6 23  4  0
  7 29  4  0
  8  9  1  0
  8 20  1  0
  9 11  1  0
  9 15  1  0
 10 16  4  0
 11 13  1  0
 12 16  4  0
 12 33  4  0
 14 15  1  0
 14 32  1  0
 17 26  1  0
 18 25  4  0
 18 30  4  0
 19 24  4  0
 19 28  4  0
 21 24  4  0
 21 30  4  0
 21 31  4  0
 22 25  4  0
 23 32  4  0
 23 33  4  0
 25 27  4  0
 27 29  1  0
 27 31  4  0
M  END
$$$$

 Created by Python create_sdf_string function

 34 39  0  0  0  0  0  0  0  0999 V2000
    7.4189   -8.3567   15.7930 C   0  0  0  0  0  0  0  0  0  0  0  0
   11.6327   -3.0180   22.2618 C   0  0  0  0  0  0  0  0  0  0  0  0
    9.7090   -6.8818   19.3929 C   0  0  0  0  0  0  0  0  0  0  0  0
    1.4112  -10.3895   18.2770 N   0  0  0  0  0  0  0  0  0  0  0  0
   -0.0078  -12.1334   17.9350 N   0  0  0  0  0  0  0  0  0  0  0  0
    7.1202   -7.4525   16.8304 N   0  0  0  0  0  0  0  0  0  0  0  0
   -0.2505  -11.7633   16.6945 C   0  0  0  0  0  0  0  0  0  0  0  0
   11.3531   -4.3790   22.5327 C   0  0  0  0  0  0  0  0  0  0  0  0
    5.1739   -8.8450   14.8988 C   0  0  0  0  0  0  0  0  0  0  0  0
    4.3026   -8.5956   15.9772 N   0  0  0  0  0  0  0  0  0  0  0  0
   -1.1199  -12.4468   15.9234 N   0  0  0  0  0  0  0  0  0  0  0  0
    4.6825   -7.4892   16.7274 C   0  0  0  0  0  0  0  0  0  0  0  0
   -0.8062  -10.9920   14.2177 N   0  0  0  0  0  0  0  0  0  0  0  0
    5.8874   -7.6554   17.4743 C   0  0  0  0  0  0  0  0  0  0  0  0
    2.0188   -8.8312   16.6811 C   0  0  0  0  0  0  0  0  0  0  0  0
    3.0167   -8.8074   15.7155 C   0  0  0  0  0  0  0  0  0  0  0  0
   -1.3585  -12.0364   14.7288 C   0  0  0  0  0  0  0  0  0  0  0  0
    1.0454  -11.8426   19.9538 N   0  0  0  0  0  0  0  0  0  0  0  0
   10.6877   -2.9778   18.8196 N   0  0  0  0  0  0  0  0  0  0  0  0
    8.2290   -6.8668   17.4730 C   0  0  0  0  0  0  0  0  0  0  0  0
    6.4726   -9.3528   15.3209 C   0  0  0  0  0  0  0  0  0  0  0  0
    9.6066   -4.9740   18.0504 C   0  0  0  0  0  0  0  0  0  0  0  0
   11.3878   -2.5814   21.0054 N   0  0  0  0  0  0  0  0  0  0  0  0
    0.3924  -10.6561   16.1840 C   0  0  0  0  0  0  0  0  0  0  0  0
    8.7371   -5.6357   17.1871 C   0  0  0  0  0  0  0  0  0  0  0  0
   10.9089   -3.4081   20.0536 C   0  0  0  0  0  0  0  0  0  0  0  0
    0.7927  -11.4739   18.7057 C   0  0  0  0  0  0  0  0  0  0  0  0
   10.5963   -4.7604   20.2591 C   0  0  0  0  0  0  0  0  0  0  0  0
    8.8190   -7.4769   18.5121 C   0  0  0  0  0  0  0  0  0  0  0  0
   10.9004   -5.2320   21.5657 C   0  0  0  0  0  0  0  0  0  0  0  0
   10.1002   -3.6905   17.8435 C   0  0  0  0  0  0  0  0  0  0  0  0
   10.0039   -5.5121   19.2512 C   0  0  0  0  0  0  0  0  0  0  0  0
    1.2660  -10.0083   17.0309 C   0  0  0  0  0  0  0  0  0  0  0  0
    0.0660  -10.3401   14.9301 C   0  0  0  0  0  0  0  0  0  0  0  0
  1  6  1  0
  1 21  1  0
  2  8  4  0
  2 23  4  0
  3 29  4  0
  3 32  4  0
  4 27  4  0
  4 33  4  0
  5  7  4  0
  5 27  4  0
  6 14  1  0
  6 20  1  0
  7 11  4  0
  7 24  4  0
  8 30  4  0
  9 10  1  0
  9 21  1  0
 10 12  1  0
 10 16  1  0
 11 17  4  0
 12 14  1  0
 13 17  4  0
 13 34  4  0
 15 16  1  0
 15 33  1  0
 18 27  1  0
 19 26  4  0
 19 31  4  0
 20 25  4  0
 20 29  4  0
 22 25  4  0
 22 31  4  0
 22 32  4  0
 23 26  4  0
 24 33  4  0
 24 34  4  0
 26 28  4  0
 28 30  4  0
 28 32  4  0
M  END
$$$$

 Created by Python create_sdf_string function

 34 43  0  0  0  0  0  0  0  0999 V2000
    7.3843   -8.4192   15.7734 C   0  0  0  0  0  0  0  0  0  0  0  0
   11.7057   -2.9940   22.2708 C   0  0  0  0  0  0  0  0  0  0  0  0
    9.6695   -6.8679   19.4041 C   0  0  0  0  0  0  0  0  0  0  0  0
    1.4479  -10.4405   18.2745 N   0  0  0  0  0  0  0  0  0  0  0  0
   -0.0237  -12.1086   17.8737 N   0  0  0  0  0  0  0  0  0  0  0  0
    7.1451   -7.4827   16.7834 N   0  0  0  0  0  0  0  0  0  0  0  0
   -0.2106  -11.7759   16.6736 C   0  0  0  0  0  0  0  0  0  0  0  0
   11.2784   -4.3192   22.5338 C   0  0  0  0  0  0  0  0  0  0  0  0
    5.2193   -8.8070   14.8658 C   0  0  0  0  0  0  0  0  0  0  0  0
    4.2735   -8.5798   15.9909 N   0  0  0  0  0  0  0  0  0  0  0  0
   -1.0848  -12.4336   15.9484 N   0  0  0  0  0  0  0  0  0  0  0  0
    4.7536   -7.5221   16.7467 C   0  0  0  0  0  0  0  0  0  0  0  0
   -0.8570  -11.0015   14.2187 N   0  0  0  0  0  0  0  0  0  0  0  0
    5.9301   -7.6276   17.4868 C   0  0  0  0  0  0  0  0  0  0  0  0
    2.0226   -8.8394   16.6696 C   0  0  0  0  0  0  0  0  0  0  0  0
    3.0226   -8.7690   15.7118 C   0  0  0  0  0  0  0  0  0  0  0  0
   -1.3476  -12.0477   14.7740 C   0  0  0  0  0  0  0  0  0  0  0  0
    1.0549  -11.8650   19.9539 N   0  0  0  0  0  0  0  0  0  0  0  0
   10.7201   -2.9435   18.7973 N   0  0  0  0  0  0  0  0  0  0  0  0
    8.2259   -6.8693   17.4361 C   0  0  0  0  0  0  0  0  0  0  0  0
    6.4557   -9.4113   15.2964 C   0  0  0  0  0  0  0  0  0  0  0  0
    9.6095   -4.9859   18.0757 C   0  0  0  0  0  0  0  0  0  0  0  0
   11.3525   -2.6000   21.0173 N   0  0  0  0  0  0  0  0  0  0  0  0
    0.4157  -10.6428   16.1742 C   0  0  0  0  0  0  0  0  0  0  0  0
    8.7276   -5.5507   17.1858 C   0  0  0  0  0  0  0  0  0  0  0  0
   10.9392   -3.4075   19.9916 C   0  0  0  0  0  0  0  0  0  0  0  0
    0.7750  -11.4513   18.6990 C   0  0  0  0  0  0  0  0  0  0  0  0
   10.6656   -4.7815   20.2837 C   0  0  0  0  0  0  0  0  0  0  0  0
    8.8425   -7.4792   18.5259 C   0  0  0  0  0  0  0  0  0  0  0  0
   10.9045   -5.2276   21.5567 C   0  0  0  0  0  0  0  0  0  0  0  0
   10.1149   -3.7181   17.8565 Br  0  0  0  0  0  0  0  0  0  0  0  0
    9.9927   -5.5037   19.2515 C   0  0  0  0  0  0  0  0  0  0  0  0
    1.2399  -10.0824   17.0005 C   0  0  0  0  0  0  0  0  0  0  0  0
    0.0831  -10.3554   14.9691 C   0  0  0  0  0  0  0  0  0  0  0  0
  1  6  1  0
  1 21  1  0
  2  8  4  0
  2 23  4  0
  2 34  4  0
  3 29  4  0
  3 30  1  0
  3 32  4  0
  4 27  4  0
  4 29  4  0
  4 33  4  0
  5  7  4  0
  5 27  4  0
  6 14  1  0
  6 20  1  0
  7 11  4  0
  7 24  4  0
  8 30  4  0
  9 10  1  0
  9 21  1  0
 10 12  1  0
 10 16  1  0
 10 17  4  0
 11 17  4  0
 11 20  1  0
 12 14  1  0
 13 34  4  0
 15 16  1  0
 15 33  1  0
 18 27  1  0
 19 26  4  0
 19 31  4  0
 20 25  4  0
 20 29  4  0
 22 25  4  0
 22 31  4  0
 22 32  4  0
 23 26  4  0
 24 33  4  0
 24 34  4  0
 26 28  4  0
 28 30  4  0
 28 32  4  0
M  END
$$$$

 Created by Python create_sdf_string function

 34 39  0  0  0  0  0  0  0  0999 V2000
    7.4269   -8.3874   15.7730 C   0  0  0  0  0  0  0  0  0  0  0  0
   11.6685   -3.0197   22.2704 C   0  0  0  0  0  0  0  0  0  0  0  0
    9.6741   -6.8720   19.4094 C   0  0  0  0  0  0  0  0  0  0  0  0
    1.4338  -10.4277   18.2505 N   0  0  0  0  0  0  0  0  0  0  0  0
   -0.0131  -12.1189   17.9184 N   0  0  0  0  0  0  0  0  0  0  0  0
    7.1538   -7.4924   16.8068 N   0  0  0  0  0  0  0  0  0  0  0  0
   -0.2460  -11.7650   16.6791 C   0  0  0  0  0  0  0  0  0  0  0  0
   11.3248   -4.3599   22.5422 C   0  0  0  0  0  0  0  0  0  0  0  0
    5.1707   -8.8146   14.8943 C   0  0  0  0  0  0  0  0  0  0  0  0
    4.3026   -8.5809   16.0052 N   0  0  0  0  0  0  0  0  0  0  0  0
   -1.1004  -12.4470   15.9296 N   0  0  0  0  0  0  0  0  0  0  0  0
    4.7469   -7.5068   16.7426 C   0  0  0  0  0  0  0  0  0  0  0  0
   -0.8173  -10.9943   14.2280 N   0  0  0  0  0  0  0  0  0  0  0  0
    5.9309   -7.6179   17.4956 C   0  0  0  0  0  0  0  0  0  0  0  0
    2.0239   -8.8385   16.6584 C   0  0  0  0  0  0  0  0  0  0  0  0
    3.0203   -8.7637   15.6877 C   0  0  0  0  0  0  0  0  0  0  0  0
   -1.3542  -12.0343   14.7431 C   0  0  0  0  0  0  0  0  0  0  0  0
    1.0149  -11.8660   19.9364 N   0  0  0  0  0  0  0  0  0  0  0  0
   10.7154   -2.9820   18.7991 N   0  0  0  0  0  0  0  0  0  0  0  0
    8.2186   -6.8708   17.4437 C   0  0  0  0  0  0  0  0  0  0  0  0
    6.4457   -9.3824   15.3227 C   0  0  0  0  0  0  0  0  0  0  0  0
    9.6015   -4.9571   18.0717 C   0  0  0  0  0  0  0  0  0  0  0  0
   11.4176   -2.5780   21.0084 N   0  0  0  0  0  0  0  0  0  0  0  0
    0.3942  -10.6701   16.1714 C   0  0  0  0  0  0  0  0  0  0  0  0
    8.7186   -5.6089   17.1863 C   0  0  0  0  0  0  0  0  0  0  0  0
   10.9348   -3.4208   20.0423 C   0  0  0  0  0  0  0  0  0  0  0  0
    0.7916  -11.4784   18.6879 C   0  0  0  0  0  0  0  0  0  0  0  0
   10.6104   -4.7561   20.2642 C   0  0  0  0  0  0  0  0  0  0  0  0
    8.8227   -7.4713   18.5131 C   0  0  0  0  0  0  0  0  0  0  0  0
   10.8915   -5.2215   21.5565 C   0  0  0  0  0  0  0  0  0  0  0  0
   10.0910   -3.6970   17.8495 C   0  0  0  0  0  0  0  0  0  0  0  0
   10.0003   -5.5044   19.2699 C   0  0  0  0  0  0  0  0  0  0  0  0
    1.2678  -10.0398   17.0233 C   0  0  0  0  0  0  0  0  0  0  0  0
    0.0613  -10.3448   14.9220 C   0  0  0  0  0  0  0  0  0  0  0  0
  1  6  1  0
  1 21  1  0
  2  8  4  0
  2 23  4  0
  3 29  4  0
  3 32  4  0
  4 27  4  0
  4 33  4  0
  5  7  4  0
  5 27  4  0
  6 14  1  0
  6 20  1  0
  7 11  4  0
  7 24  4  0
  8 30  4  0
  9 10  1  0
  9 21  1  0
 10 12  1  0
 10 16  1  0
 11 17  4  0
 12 14  1  0
 13 17  4  0
 13 34  4  0
 15 16  1  0
 15 33  1  0
 18 27  1  0
 19 26  4  0
 19 31  4  0
 20 25  4  0
 20 29  4  0
 22 25  4  0
 22 31  4  0
 22 32  4  0
 23 26  4  0
 24 33  4  0
 24 34  4  0
 26 28  4  0
 28 30  4  0
 28 32  4  0
M  END
$$$$

 Created by Python create_sdf_string function

 34 41  0  0  0  0  0  0  0  0999 V2000
    7.3918   -8.3620   15.7747 C   0  0  0  0  0  0  0  0  0  0  0  0
   11.7099   -3.0386   22.2685 Br  0  0  0  0  0  0  0  0  0  0  0  0
    9.6697   -6.8460   19.3817 C   0  0  0  0  0  0  0  0  0  0  0  0
    1.4584  -10.4039   18.2630 N   0  0  0  0  0  0  0  0  0  0  0  0
   -0.0357  -12.1116   17.9052 N   0  0  0  0  0  0  0  0  0  0  0  0
    7.1310   -7.4698   16.8081 N   0  0  0  0  0  0  0  0  0  0  0  0
   -0.2438  -11.7518   16.6211 C   0  0  0  0  0  0  0  0  0  0  0  0
   11.3533   -4.4018   22.5451 C   0  0  0  0  0  0  0  0  0  0  0  0
    5.1374   -8.7839   14.8815 C   0  0  0  0  0  0  0  0  0  0  0  0
    4.2617   -8.5596   16.0315 N   0  0  0  0  0  0  0  0  0  0  0  0
   -1.1154  -12.4642   15.9050 N   0  0  0  0  0  0  0  0  0  0  0  0
    4.7241   -7.4694   16.7229 C   0  0  0  0  0  0  0  0  0  0  0  0
   -0.8426  -11.0293   14.2010 N   0  0  0  0  0  0  0  0  0  0  0  0
    5.8908   -7.6309   17.4932 C   0  0  0  0  0  0  0  0  0  0  0  0
    2.0539   -8.8278   16.6448 C   0  0  0  0  0  0  0  0  0  0  0  0
    3.0485   -8.7448   15.6668 C   0  0  0  0  0  0  0  0  0  0  0  0
   -1.3515  -11.9470   14.7500 C   0  0  0  0  0  0  0  0  0  0  0  0
    1.0255  -11.8713   19.9098 N   0  0  0  0  0  0  0  0  0  0  0  0
   10.7228   -2.9528   18.8069 N   0  0  0  0  0  0  0  0  0  0  0  0
    8.2021   -6.8665   17.4197 C   0  0  0  0  0  0  0  0  0  0  0  0
    6.4654   -9.3546   15.3384 C   0  0  0  0  0  0  0  0  0  0  0  0
    9.6126   -4.8927   18.0552 C   0  0  0  0  0  0  0  0  0  0  0  0
   11.4553   -2.5438   20.9919 N   0  0  0  0  0  0  0  0  0  0  0  0
    0.4046  -10.7038   16.1424 C   0  0  0  0  0  0  0  0  0  0  0  0
    8.7038   -5.5972   17.1643 C   0  0  0  0  0  0  0  0  0  0  0  0
   10.9030   -3.4399   20.0330 C   0  0  0  0  0  0  0  0  0  0  0  0
    0.8554  -11.4709   18.6814 C   0  0  0  0  0  0  0  0  0  0  0  0
   10.5473   -4.7865   20.2498 C   0  0  0  0  0  0  0  0  0  0  0  0
    8.8262   -7.4797   18.5040 C   0  0  0  0  0  0  0  0  0  0  0  0
   10.9033   -5.1858   21.5645 C   0  0  0  0  0  0  0  0  0  0  0  0
   10.1147   -3.7521   17.8264 C   0  0  0  0  0  0  0  0  0  0  0  0
   10.0360   -5.5105   19.2597 C   0  0  0  0  0  0  0  0  0  0  0  0
    1.2484  -10.0486   17.0159 C   0  0  0  0  0  0  0  0  0  0  0  0
    0.0738  -10.3378   14.9271 C   0  0  0  0  0  0  0  0  0  0  0  0
  1  6  1  0
  1  8  4  0
  1 21  1  0
  2  8  4  0
  2 23  4  0
  3 29  4  0
  3 32  4  0
  4 27  4  0
  4 33  4  0
  5  7  4  0
  5 27  4  0
  6 20  1  0
  7 11  4  0
  7 24  4  0
  8  9  1  0
  8 15  4  0
  8 30  4  0
  9 10  1  0
  9 21  1  0
 10 12  1  0
 10 16  1  0
 11 17  4  0
 12 14  1  0
 13 17  4  0
 13 34  4  0
 15 16  1  0
 15 33  1  0
 18 27  1  0
 19 26  4  0
 19 31  4  0
 20 25  4  0
 20 29  4  0
 22 25  4  0
 22 31  4  0
 22 32  4  0
 23 26  4  0
 24 33  4  0
 24 34  4  0
 26 28  4  0
 28 30  4  0
 28 32  4  0
M  END
$$$$

 Created by Python create_sdf_string function

 34 39  0  0  0  0  0  0  0  0999 V2000
    7.4277   -8.3421   15.7573 C   0  0  0  0  0  0  0  0  0  0  0  0
   11.6869   -3.0610   22.2505 C   0  0  0  0  0  0  0  0  0  0  0  0
    9.6674   -6.8591   19.3849 C   0  0  0  0  0  0  0  0  0  0  0  0
    1.4447  -10.4192   18.2184 N   0  0  0  0  0  0  0  0  0  0  0  0
   -0.0116  -12.1267   17.9100 N   0  0  0  0  0  0  0  0  0  0  0  0
    7.1372   -7.4822   16.8302 N   0  0  0  0  0  0  0  0  0  0  0  0
   -0.2612  -11.7709   16.6610 C   0  0  0  0  0  0  0  0  0  0  0  0
   11.3702   -4.3883   22.5225 C   0  0  0  0  0  0  0  0  0  0  0  0
    5.1471   -8.8085   14.9134 C   0  0  0  0  0  0  0  0  0  0  0  0
    4.2875   -8.5669   16.0323 N   0  0  0  0  0  0  0  0  0  0  0  0
   -1.1283  -12.4416   15.8956 N   0  0  0  0  0  0  0  0  0  0  0  0
    4.7219   -7.4476   16.7292 C   0  0  0  0  0  0  0  0  0  0  0  0
   -0.8054  -10.9754   14.1856 N   0  0  0  0  0  0  0  0  0  0  0  0
    5.9055   -7.6217   17.4847 C   0  0  0  0  0  0  0  0  0  0  0  0
    2.0323   -8.8354   16.6346 C   0  0  0  0  0  0  0  0  0  0  0  0
    3.0204   -8.7381   15.6725 C   0  0  0  0  0  0  0  0  0  0  0  0
   -1.3612  -11.9833   14.7293 C   0  0  0  0  0  0  0  0  0  0  0  0
    1.0220  -11.8745   19.9095 N   0  0  0  0  0  0  0  0  0  0  0  0
   10.7098   -2.9840   18.7977 N   0  0  0  0  0  0  0  0  0  0  0  0
    8.2012   -6.8693   17.4423 C   0  0  0  0  0  0  0  0  0  0  0  0
    6.4456   -9.3343   15.3493 C   0  0  0  0  0  0  0  0  0  0  0  0
    9.5951   -4.9484   18.0539 C   0  0  0  0  0  0  0  0  0  0  0  0
   11.4530   -2.6020   21.0046 N   0  0  0  0  0  0  0  0  0  0  0  0
    0.3806  -10.6722   16.1546 C   0  0  0  0  0  0  0  0  0  0  0  0
    8.7098   -5.6163   17.1709 C   0  0  0  0  0  0  0  0  0  0  0  0
   10.9262   -3.4347   20.0397 C   0  0  0  0  0  0  0  0  0  0  0  0
    0.8110  -11.4831   18.6718 C   0  0  0  0  0  0  0  0  0  0  0  0
   10.5858   -4.7626   20.2601 C   0  0  0  0  0  0  0  0  0  0  0  0
    8.8095   -7.4717   18.5068 C   0  0  0  0  0  0  0  0  0  0  0  0
   10.8729   -5.2217   21.5524 C   0  0  0  0  0  0  0  0  0  0  0  0
   10.1038   -3.6857   17.8323 C   0  0  0  0  0  0  0  0  0  0  0  0
    9.9823   -5.5019   19.2580 C   0  0  0  0  0  0  0  0  0  0  0  0
    1.2583  -10.0336   17.0015 C   0  0  0  0  0  0  0  0  0  0  0  0
    0.0714  -10.3385   14.8942 C   0  0  0  0  0  0  0  0  0  0  0  0
  1  6  1  0
  1 21  1  0
  2  8  4  0
  2 23  4  0
  3 29  4  0
  3 32  4  0
  4 27  4  0
  4 33  4  0
  5  7  4  0
  5 27  4  0
  6 14  1  0
  6 20  1  0
  7 11  4  0
  7 24  4  0
  8 30  4  0
  9 10  1  0
  9 21  1  0
 10 12  1  0
 10 16  1  0
 11 17  4  0
 12 14  1  0
 13 17  4  0
 13 34  4  0
 15 16  1  0
 15 33  1  0
 18 27  1  0
 19 26  4  0
 19 31  4  0
 20 25  4  0
 20 29  4  0
 22 25  4  0
 22 31  4  0
 22 32  4  0
 23 26  4  0
 24 33  4  0
 24 34  4  0
 26 28  4  0
 28 30  4  0
 28 32  4  0
M  END
$$$$

 Created by Python create_sdf_string function

 34 42  0  0  0  0  0  0  0  0999 V2000
    7.4438   -8.3531   15.7699 C   0  0  0  0  0  0  0  0  0  0  0  0
   11.7017   -3.0840   22.2803 C   0  0  0  0  0  0  0  0  0  0  0  0
    9.6605   -6.8588   19.4148 C   0  0  0  0  0  0  0  0  0  0  0  0
    1.4739  -10.3911   18.2115 N   0  0  0  0  0  0  0  0  0  0  0  0
   -0.0004  -12.1512   17.9171 N   0  0  0  0  0  0  0  0  0  0  0  0
    7.1439   -7.4695   16.8311 N   0  0  0  0  0  0  0  0  0  0  0  0
   -0.2922  -11.8008   16.6769 C   0  0  0  0  0  0  0  0  0  0  0  0
   11.3750   -4.3492   22.5189 C   0  0  0  0  0  0  0  0  0  0  0  0
    5.1566   -8.8443   14.9246 C   0  0  0  0  0  0  0  0  0  0  0  0
    4.2676   -8.5965   15.9889 N   0  0  0  0  0  0  0  0  0  0  0  0
   -1.1262  -12.4510   15.9046 N   0  0  0  0  0  0  0  0  0  0  0  0
    4.7208   -7.4537   16.7112 C   0  0  0  0  0  0  0  0  0  0  0  0
   -0.8395  -10.9637   14.2155 N   0  0  0  0  0  0  0  0  0  0  0  0
    5.9211   -7.6298   17.4643 C   0  0  0  0  0  0  0  0  0  0  0  0
    2.0406   -8.8210   16.6079 C   0  0  0  0  0  0  0  0  0  0  0  0
    3.0116   -8.7158   15.6963 C   0  0  0  0  0  0  0  0  0  0  0  0
   -1.3673  -11.9884   14.7106 C   0  0  0  0  0  0  0  0  0  0  0  0
    1.0131  -11.8728   19.8788 N   0  0  0  0  0  0  0  0  0  0  0  0
   10.6954   -2.9866   18.7756 N   0  0  0  0  0  0  0  0  0  0  0  0
    8.2020   -6.8717   17.4425 C   0  0  0  0  0  0  0  0  0  0  0  0
    6.4402   -9.3519   15.3656 C   0  0  0  0  0  0  0  0  0  0  0  0
    9.5588   -4.9171   18.0771 C   0  0  0  0  0  0  0  0  0  0  0  0
    0.3859  -10.6792   16.1527 C   0  0  0  0  0  0  0  0  0  0  0  0
    8.7018   -5.6151   17.1877 C   0  0  0  0  0  0  0  0  0  0  0  0
   10.9208   -3.4431   20.0327 C   0  0  0  0  0  0  0  0  0  0  0  0
    0.8165  -11.4934   18.6707 C   0  0  0  0  0  0  0  0  0  0  0  0
   10.5479   -4.7924   20.2342 C   0  0  0  0  0  0  0  0  0  0  0  0
    8.7769   -7.4412   18.5313 C   0  0  0  0  0  0  0  0  0  0  0  0
   10.8468   -5.2338   21.5613 C   0  0  0  0  0  0  0  0  0  0  0  0
   10.1175   -3.6952   17.8559 C   0  0  0  0  0  0  0  0  0  0  0  0
   10.0001   -5.4916   19.2580 C   0  0  0  0  0  0  0  0  0  0  0  0
    1.2945  -10.0617   16.9754 C   0  0  0  0  0  0  0  0  0  0  0  0
    0.0711  -10.3446   14.8974 C   0  0  0  0  0  0  0  0  0  0  0  0
   11.4485   -2.6020   20.9842 He  0  0  0  0  0  0  0  0  0  0  0  0
  1  6  1  0
  1 21  1  0
  2  6  2  0
  2  8  4  0
  3 28  4  0
  3 31  4  0
  4 26  4  0
  4 32  4  0
  5  7  4  0
  5 26  4  0
  6 14  1  0
  6 20  1  0
  6 21  3  0
  7 11  4  0
  7 23  4  0
  8 29  4  0
  9 10  1  0
  9 15  1  0
  9 21  1  0
 10 11  3  0
 10 12  1  0
 10 16  1  0
 11 17  4  0
 12 14  1  0
 13 17  4  0
 13 33  4  0
 15 16  1  0
 15 32  1  0
 18 26  1  0
 19 25  4  0
 19 30  4  0
 20 24  4  0
 20 28  4  0
 22 24  4  0
 22 30  4  0
 22 31  4  0
 23 27  2  0
 23 32  4  0
 23 33  2  0
 25 27  4  0
 27 29  4  0
 27 31  4  0
M  END
$$$$

 Created by Python create_sdf_string function

 34 39  0  0  0  0  0  0  0  0999 V2000
    7.4436   -8.3476   15.7617 C   0  0  0  0  0  0  0  0  0  0  0  0
   11.7033   -3.0530   22.2579 C   0  0  0  0  0  0  0  0  0  0  0  0
    9.6455   -6.8531   19.4138 C   0  0  0  0  0  0  0  0  0  0  0  0
    1.4548  -10.4295   18.1966 N   0  0  0  0  0  0  0  0  0  0  0  0
   -0.0088  -12.1377   17.9097 N   0  0  0  0  0  0  0  0  0  0  0  0
    7.1510   -7.4819   16.8279 N   0  0  0  0  0  0  0  0  0  0  0  0
   -0.2707  -11.7844   16.6688 C   0  0  0  0  0  0  0  0  0  0  0  0
   11.3741   -4.3902   22.5247 C   0  0  0  0  0  0  0  0  0  0  0  0
    5.1573   -8.8637   14.9244 C   0  0  0  0  0  0  0  0  0  0  0  0
    4.2862   -8.5818   16.0109 N   0  0  0  0  0  0  0  0  0  0  0  0
   -1.1412  -12.4365   15.8962 N   0  0  0  0  0  0  0  0  0  0  0  0
    4.7149   -7.4451   16.7052 C   0  0  0  0  0  0  0  0  0  0  0  0
   -0.8122  -10.9502   14.1958 N   0  0  0  0  0  0  0  0  0  0  0  0
    5.9036   -7.6289   17.4595 C   0  0  0  0  0  0  0  0  0  0  0  0
    2.0047   -8.8205   16.6202 C   0  0  0  0  0  0  0  0  0  0  0  0
    2.9966   -8.7206   15.6759 C   0  0  0  0  0  0  0  0  0  0  0  0
   -1.3749  -11.9920   14.7052 C   0  0  0  0  0  0  0  0  0  0  0  0
    1.0134  -11.8684   19.8825 N   0  0  0  0  0  0  0  0  0  0  0  0
   10.7038   -2.9855   18.7895 N   0  0  0  0  0  0  0  0  0  0  0  0
    8.1997   -6.8648   17.4629 C   0  0  0  0  0  0  0  0  0  0  0  0
    6.4492   -9.3450   15.3743 C   0  0  0  0  0  0  0  0  0  0  0  0
    9.5728   -4.9465   18.0639 C   0  0  0  0  0  0  0  0  0  0  0  0
   11.4765   -2.5837   20.9977 N   0  0  0  0  0  0  0  0  0  0  0  0
    0.3775  -10.6869   16.1511 C   0  0  0  0  0  0  0  0  0  0  0  0
    8.6995   -5.6275   17.1909 C   0  0  0  0  0  0  0  0  0  0  0  0
   10.9336   -3.4206   20.0336 C   0  0  0  0  0  0  0  0  0  0  0  0
    0.8109  -11.4856   18.6519 C   0  0  0  0  0  0  0  0  0  0  0  0
   10.5738   -4.7513   20.2605 C   0  0  0  0  0  0  0  0  0  0  0  0
    8.7845   -7.4517   18.5320 C   0  0  0  0  0  0  0  0  0  0  0  0
   10.8508   -5.2385   21.5628 C   0  0  0  0  0  0  0  0  0  0  0  0
   10.0854   -3.6812   17.8453 C   0  0  0  0  0  0  0  0  0  0  0  0
    9.9639   -5.4904   19.2681 C   0  0  0  0  0  0  0  0  0  0  0  0
    1.2679  -10.0358   16.9798 C   0  0  0  0  0  0  0  0  0  0  0  0
    0.0692  -10.3328   14.8995 C   0  0  0  0  0  0  0  0  0  0  0  0
  1  6  1  0
  1 21  1  0
  2  8  4  0
  2 23  4  0
  3 29  4  0
  3 32  4  0
  4 27  4  0
  4 33  4  0
  5  7  4  0
  5 27  4  0
  6 14  1  0
  6 20  1  0
  7 11  4  0
  7 24  4  0
  8 30  4  0
  9 10  1  0
  9 21  1  0
 10 12  1  0
 10 16  1  0
 11 17  4  0
 12 14  1  0
 13 17  4  0
 13 34  4  0
 15 16  1  0
 15 33  1  0
 18 27  1  0
 19 26  4  0
 19 31  4  0
 20 25  4  0
 20 29  4  0
 22 25  4  0
 22 31  4  0
 22 32  4  0
 23 26  4  0
 24 33  4  0
 24 34  4  0
 26 28  4  0
 28 30  4  0
 28 32  4  0
M  END
$$$$

 Created by Python create_sdf_string function

 34 41  0  0  0  0  0  0  0  0999 V2000
    7.4418   -8.3390   15.7579 C   0  0  0  0  0  0  0  0  0  0  0  0
   11.6910   -3.0588   22.2505 C   0  0  0  0  0  0  0  0  0  0  0  0
    9.6404   -6.8435   19.4213 C   0  0  0  0  0  0  0  0  0  0  0  0
    1.4328  -10.4213   18.2119 N   0  0  0  0  0  0  0  0  0  0  0  0
   -0.0128  -12.1041   17.9201 N   0  0  0  0  0  0  0  0  0  0  0  0
    7.1323   -7.4641   16.8012 N   0  0  0  0  0  0  0  0  0  0  0  0
   -0.2697  -11.8025   16.6908 C   0  0  0  0  0  0  0  0  0  0  0  0
   11.3874   -4.3895   22.5398 C   0  0  0  0  0  0  0  0  0  0  0  0
    5.1786   -8.8210   14.9093 C   0  0  0  0  0  0  0  0  0  0  0  0
    4.2463   -8.5573   16.0119 N   0  0  0  0  0  0  0  0  0  0  0  0
   -1.1188  -12.4410   15.9240 N   0  0  0  0  0  0  0  0  0  0  0  0
    4.7341   -7.4654   16.7066 C   0  0  0  0  0  0  0  0  0  0  0  0
   -0.8493  -10.9507   14.2232 N   0  0  0  0  0  0  0  0  0  0  0  0
    5.9128   -7.6224   17.4640 C   0  0  0  0  0  0  0  0  0  0  0  0
    1.9960   -8.8083   16.6357 C   0  0  0  0  0  0  0  0  0  0  0  0
    2.9543   -8.7239   15.6848 C   0  0  0  0  0  0  0  0  0  0  0  0
   -1.3841  -11.9804   14.7142 C   0  0  0  0  0  0  0  0  0  0  0  0
    0.9925  -11.8494   19.8659 N   0  0  0  0  0  0  0  0  0  0  0  0
   10.6750   -2.9942   18.8008 N   0  0  0  0  0  0  0  0  0  0  0  0
    8.1929   -6.8709   17.4663 C   0  0  0  0  0  0  0  0  0  0  0  0
    6.4709   -9.3328   15.3784 C   0  0  0  0  0  0  0  0  0  0  0  0
    9.5857   -4.9735   18.0406 C   0  0  0  0  0  0  0  0  0  0  0  0
   11.4430   -2.6131   20.9897 N   0  0  0  0  0  0  0  0  0  0  0  0
    0.3862  -10.7107   16.1449 C   0  0  0  0  0  0  0  0  0  0  0  0
    8.6948   -5.6183   17.2101 C   0  0  0  0  0  0  0  0  0  0  0  0
   10.9512   -3.4017   20.0366 C   0  0  0  0  0  0  0  0  0  0  0  0
    0.8008  -11.4929   18.6517 C   0  0  0  0  0  0  0  0  0  0  0  0
   10.5746   -4.7363   20.2419 C   0  0  0  0  0  0  0  0  0  0  0  0
    8.7949   -7.4604   18.5533 C   0  0  0  0  0  0  0  0  0  0  0  0
   10.8400   -5.2368   21.5836 C   0  0  0  0  0  0  0  0  0  0  0  0
   10.0865   -3.6899   17.8251 C   0  0  0  0  0  0  0  0  0  0  0  0
    9.9557   -5.4977   19.2764 C   0  0  0  0  0  0  0  0  0  0  0  0
    1.2744  -10.0351   16.9734 C   0  0  0  0  0  0  0  0  0  0  0  0
    0.0879  -10.3311   14.9150 C   0  0  0  0  0  0  0  0  0  0  0  0
  1  6  1  0
  1 21  1  0
  2  8  4  0
  2 23  4  0
  3 29  4  0
  3 32  4  0
  4 27  4  0
  4 33  4  0
  5  7  4  0
  5 27  4  0
  6 13  3  0
  6 14  1  0
  6 20  1  0
  7 11  4  0
  7 24  4  0
  8 30  4  0
  9 10  1  0
  9 21  1  0
 10 12  1  0
 10 16  1  0
 11 17  4  0
 12 14  1  0
 13 17  4  0
 13 34  4  0
 15 16  1  0
 15 33  1  0
 18 27  1  0
 19 25  4  0
 19 26  4  0
 19 31  4  0
 20 25  4  0
 20 29  4  0
 22 25  4  0
 22 31  4  0
 22 32  4  0
 23 26  4  0
 24 33  4  0
 24 34  4  0
 26 28  4  0
 28 30  4  0
 28 32  4  0
M  END
$$$$

 Created by Python create_sdf_string function

 34 39  0  0  0  0  0  0  0  0999 V2000
    7.4456   -8.3264   15.7611 C   0  0  0  0  0  0  0  0  0  0  0  0
   11.6954   -3.0600   22.2442 C   0  0  0  0  0  0  0  0  0  0  0  0
    9.6311   -6.8535   19.4316 C   0  0  0  0  0  0  0  0  0  0  0  0
    1.4320  -10.4252   18.1865 N   0  0  0  0  0  0  0  0  0  0  0  0
   -0.0181  -12.1217   17.9021 N   0  0  0  0  0  0  0  0  0  0  0  0
    7.1460   -7.4890   16.8342 N   0  0  0  0  0  0  0  0  0  0  0  0
   -0.2628  -11.7689   16.6694 C   0  0  0  0  0  0  0  0  0  0  0  0
   11.3827   -4.4125   22.5385 C   0  0  0  0  0  0  0  0  0  0  0  0
    5.1575   -8.8287   14.9372 C   0  0  0  0  0  0  0  0  0  0  0  0
    4.2702   -8.5541   16.0203 N   0  0  0  0  0  0  0  0  0  0  0  0
   -1.1320  -12.4298   15.9037 N   0  0  0  0  0  0  0  0  0  0  0  0
    4.7366   -7.4539   16.7049 C   0  0  0  0  0  0  0  0  0  0  0  0
   -0.8134  -10.9393   14.2074 N   0  0  0  0  0  0  0  0  0  0  0  0
    5.9076   -7.6200   17.4549 C   0  0  0  0  0  0  0  0  0  0  0  0
    2.0054   -8.8078   16.6320 C   0  0  0  0  0  0  0  0  0  0  0  0
    2.9754   -8.7284   15.6598 C   0  0  0  0  0  0  0  0  0  0  0  0
   -1.3751  -11.9783   14.7194 C   0  0  0  0  0  0  0  0  0  0  0  0
    0.9910  -11.8547   19.8749 N   0  0  0  0  0  0  0  0  0  0  0  0
   10.6889   -2.9971   18.7925 N   0  0  0  0  0  0  0  0  0  0  0  0
    8.1917   -6.8799   17.4779 C   0  0  0  0  0  0  0  0  0  0  0  0
    6.4564   -9.3244   15.3811 C   0  0  0  0  0  0  0  0  0  0  0  0
    9.5651   -4.9636   18.0522 C   0  0  0  0  0  0  0  0  0  0  0  0
   11.4718   -2.6129   21.0011 N   0  0  0  0  0  0  0  0  0  0  0  0
    0.3708  -10.6904   16.1526 C   0  0  0  0  0  0  0  0  0  0  0  0
    8.6947   -5.6502   17.2052 C   0  0  0  0  0  0  0  0  0  0  0  0
   10.9371   -3.4222   20.0459 C   0  0  0  0  0  0  0  0  0  0  0  0
    0.7951  -11.4762   18.6455 C   0  0  0  0  0  0  0  0  0  0  0  0
   10.5757   -4.7448   20.2744 C   0  0  0  0  0  0  0  0  0  0  0  0
    8.7825   -7.4620   18.5520 C   0  0  0  0  0  0  0  0  0  0  0  0
   10.8437   -5.2410   21.5631 C   0  0  0  0  0  0  0  0  0  0  0  0
   10.0771   -3.6861   17.8344 C   0  0  0  0  0  0  0  0  0  0  0  0
    9.9598   -5.4914   19.2713 C   0  0  0  0  0  0  0  0  0  0  0  0
    1.2597  -10.0265   16.9779 C   0  0  0  0  0  0  0  0  0  0  0  0
    0.0768  -10.3366   14.9151 C   0  0  0  0  0  0  0  0  0  0  0  0
  1  6  1  0
  1 21  1  0
  2  8  4  0
  2 23  4  0
  3 29  4  0
  3 32  4  0
  4 27  4  0
  4 33  4  0
  5  7  4  0
  5 27  4  0
  6 14  1  0
  6 20  1  0
  7 11  4  0
  7 24  4  0
  8 30  4  0
  9 10  1  0
  9 21  1  0
 10 12  1  0
 10 16  1  0
 11 17  4  0
 12 14  1  0
 13 17  4  0
 13 34  4  0
 15 16  1  0
 15 33  1  0
 18 27  1  0
 19 26  4  0
 19 31  4  0
 20 25  4  0
 20 29  4  0
 22 25  4  0
 22 31  4  0
 22 32  4  0
 23 26  4  0
 24 33  4  0
 24 34  4  0
 26 28  4  0
 28 30  4  0
 28 32  4  0
M  END
$$$$

 Created by Python create_sdf_string function

 34 42  0  0  0  0  0  0  0  0999 V2000
    7.4499   -8.3249   15.7629 C   0  0  0  0  0  0  0  0  0  0  0  0
   11.7109   -3.0851   22.2478 C   0  0  0  0  0  0  0  0  0  0  0  0
    9.6303   -6.8663   19.4197 C   0  0  0  0  0  0  0  0  0  0  0  0
    1.4278  -10.4034   18.1935 N   0  0  0  0  0  0  0  0  0  0  0  0
   -0.0230  -12.1058   17.9091 N   0  0  0  0  0  0  0  0  0  0  0  0
    7.1514   -7.4774   16.8326 N   0  0  0  0  0  0  0  0  0  0  0  0
   -0.2551  -11.7657   16.6699 C   0  0  0  0  0  0  0  0  0  0  0  0
   11.3724   -4.3970   22.5571 C   0  0  0  0  0  0  0  0  0  0  0  0
    5.1439   -8.8305   14.9189 C   0  0  0  0  0  0  0  0  0  0  0  0
    4.2581   -8.5611   16.0425 N   0  0  0  0  0  0  0  0  0  0  0  0
   -1.1257  -12.4592   15.9119 N   0  0  0  0  0  0  0  0  0  0  0  0
    4.7289   -7.4377   16.7127 C   0  0  0  0  0  0  0  0  0  0  0  0
   -0.7998  -10.9533   14.2211 N   0  0  0  0  0  0  0  0  0  0  0  0
    5.9095   -7.6212   17.4771 C   0  0  0  0  0  0  0  0  0  0  0  0
    1.9989   -8.8001   16.6492 C   0  0  0  0  0  0  0  0  0  0  0  0
    2.9955   -8.7491   15.6315 C   0  0  0  0  0  0  0  0  0  0  0  0
   -1.3835  -11.9830   14.7400 C   0  0  0  0  0  0  0  0  0  0  0  0
   10.6896   -3.0249   18.7990 N   0  0  0  0  0  0  0  0  0  0  0  0
    8.1944   -6.8964   17.5017 C   0  0  0  0  0  0  0  0  0  0  0  0
    6.4543   -9.3350   15.3780 C   0  0  0  0  0  0  0  0  0  0  0  0
    9.5595   -4.9357   18.0721 C   0  0  0  0  0  0  0  0  0  0  0  0
   11.4860   -2.6154   21.0088 N   0  0  0  0  0  0  0  0  0  0  0  0
    0.3848  -10.6718   16.1626 C   0  0  0  0  0  0  0  0  0  0  0  0
    8.7202   -5.6512   17.2039 C   0  0  0  0  0  0  0  0  0  0  0  0
   10.9342   -3.4299   20.0424 C   0  0  0  0  0  0  0  0  0  0  0  0
    0.7862  -11.4599   18.6251 C   0  0  0  0  0  0  0  0  0  0  0  0
   10.5783   -4.7201   20.2546 C   0  0  0  0  0  0  0  0  0  0  0  0
    8.7861   -7.4472   18.5534 C   0  0  0  0  0  0  0  0  0  0  0  0
   10.8503   -5.2208   21.5716 C   0  0  0  0  0  0  0  0  0  0  0  0
   10.0662   -3.7105   17.8486 C   0  0  0  0  0  0  0  0  0  0  0  0
    9.9649   -5.4819   19.2855 C   0  0  0  0  0  0  0  0  0  0  0  0
    1.2691  -10.0064   16.9908 C   0  0  0  0  0  0  0  0  0  0  0  0
    0.0779  -10.3315   14.9087 C   0  0  0  0  0  0  0  0  0  0  0  0
    0.9958  -11.8623   19.8846 He  0  0  0  0  0  0  0  0  0  0  0  0
  1  6  1  0
  1 20  1  0
  1 28  3  0
  2  8  4  0
  2 22  4  0
  3 28  4  0
  3 31  4  0
  4 26  4  0
  4 32  4  0
  5  7  4  0
  5 26  4  0
  6 14  1  0
  6 19  1  0
  6 23  2  0
  7 11  4  0
  7 23  4  0
  8 29  4  0
  9 10  1  0
  9 20  1  0
 10 12  1  0
 10 16  1  0
 11 17  4  0
 12 14  1  0
 13 17  4  0
 13 33  4  0
 15 16  1  0
 15 32  1  0
 18 25  4  0
 18 30  4  0
 18 31  1  0
 19 24  4  0
 19 28  4  0
 21 24  4  0
 21 30  4  0
 21 31  4  0
 22 25  4  0
 23 29  2  0
 23 32  4  0
 23 33  4  0
 25 27  4  0
 27 29  4  0
 27 31  4  0
M  END
$$$$

 Created by Python create_sdf_string function

 34 39  0  0  0  0  0  0  0  0999 V2000
    7.4488   -8.3205   15.7638 C   0  0  0  0  0  0  0  0  0  0  0  0
   11.7141   -3.0786   22.2451 C   0  0  0  0  0  0  0  0  0  0  0  0
    9.6346   -6.8581   19.4424 C   0  0  0  0  0  0  0  0  0  0  0  0
    1.4267  -10.4075   18.2040 N   0  0  0  0  0  0  0  0  0  0  0  0
   -0.0257  -12.1169   17.9010 N   0  0  0  0  0  0  0  0  0  0  0  0
    7.1505   -7.4900   16.8553 N   0  0  0  0  0  0  0  0  0  0  0  0
   -0.2668  -11.7598   16.6650 C   0  0  0  0  0  0  0  0  0  0  0  0
   11.3760   -4.4153   22.5469 C   0  0  0  0  0  0  0  0  0  0  0  0
    5.1368   -8.8392   14.9439 C   0  0  0  0  0  0  0  0  0  0  0  0
    4.2680   -8.5608   16.0504 N   0  0  0  0  0  0  0  0  0  0  0  0
   -1.1359  -12.4338   15.8977 N   0  0  0  0  0  0  0  0  0  0  0  0
    4.7235   -7.4355   16.7086 C   0  0  0  0  0  0  0  0  0  0  0  0
   -0.7922  -10.9460   14.2009 N   0  0  0  0  0  0  0  0  0  0  0  0
    5.9005   -7.6220   17.4788 C   0  0  0  0  0  0  0  0  0  0  0  0
    2.0246   -8.8175   16.6269 C   0  0  0  0  0  0  0  0  0  0  0  0
    2.9918   -8.7391   15.6422 C   0  0  0  0  0  0  0  0  0  0  0  0
   -1.3702  -11.9802   14.7235 C   0  0  0  0  0  0  0  0  0  0  0  0
    0.9941  -11.8596   19.8934 N   0  0  0  0  0  0  0  0  0  0  0  0
   10.6965   -3.0082   18.8060 N   0  0  0  0  0  0  0  0  0  0  0  0
    8.1998   -6.8850   17.4965 C   0  0  0  0  0  0  0  0  0  0  0  0
    6.4406   -9.3279   15.3832 C   0  0  0  0  0  0  0  0  0  0  0  0
    9.5617   -4.9638   18.0759 C   0  0  0  0  0  0  0  0  0  0  0  0
   11.4968   -2.6193   20.9985 N   0  0  0  0  0  0  0  0  0  0  0  0
    0.3753  -10.6639   16.1559 C   0  0  0  0  0  0  0  0  0  0  0  0
    8.7031   -5.6593   17.2131 C   0  0  0  0  0  0  0  0  0  0  0  0
   10.9419   -3.4265   20.0466 C   0  0  0  0  0  0  0  0  0  0  0  0
    0.7895  -11.4628   18.6440 C   0  0  0  0  0  0  0  0  0  0  0  0
   10.5755   -4.7446   20.2841 C   0  0  0  0  0  0  0  0  0  0  0  0
    8.7815   -7.4624   18.5596 C   0  0  0  0  0  0  0  0  0  0  0  0
   10.8460   -5.2361   21.5650 C   0  0  0  0  0  0  0  0  0  0  0  0
   10.0606   -3.6921   17.8545 C   0  0  0  0  0  0  0  0  0  0  0  0
    9.9554   -5.4909   19.2868 C   0  0  0  0  0  0  0  0  0  0  0  0
    1.2614  -10.0063   16.9820 C   0  0  0  0  0  0  0  0  0  0  0  0
    0.0781  -10.3237   14.9122 C   0  0  0  0  0  0  0  0  0  0  0  0
  1  6  1  0
  1 21  1  0
  2  8  4  0
  2 23  4  0
  3 29  4  0
  3 32  4  0
  4 27  4  0
  4 33  4  0
  5  7  4  0
  5 27  4  0
  6 14  1  0
  6 20  1  0
  7 11  4  0
  7 24  4  0
  8 30  4  0
  9 10  1  0
  9 21  1  0
 10 12  1  0
 10 16  1  0
 11 17  4  0
 12 14  1  0
 13 17  4  0
 13 34  4  0
 15 16  1  0
 15 33  1  0
 18 27  1  0
 19 26  4  0
 19 31  4  0
 20 25  4  0
 20 29  4  0
 22 25  4  0
 22 31  4  0
 22 32  4  0
 23 26  4  0
 24 33  4  0
 24 34  4  0
 26 28  4  0
 28 30  4  0
 28 32  4  0
M  END
$$$$

 Created by Python create_sdf_string function

 34 42  0  0  0  0  0  0  0  0999 V2000
    7.4550   -8.3180   15.7566 C   0  0  0  0  0  0  0  0  0  0  0  0
   11.7251   -3.0691   22.2508 C   0  0  0  0  0  0  0  0  0  0  0  0
    9.6208   -6.8554   19.4442 C   0  0  0  0  0  0  0  0  0  0  0  0
    1.4220  -10.4139   18.1978 N   0  0  0  0  0  0  0  0  0  0  0  0
   -0.0124  -12.1079   17.8940 N   0  0  0  0  0  0  0  0  0  0  0  0
    7.1439   -7.5085   16.8420 N   0  0  0  0  0  0  0  0  0  0  0  0
   -0.2600  -11.7712   16.6759 C   0  0  0  0  0  0  0  0  0  0  0  0
   11.3800   -4.4377   22.5481 C   0  0  0  0  0  0  0  0  0  0  0  0
    5.1402   -8.8469   14.9524 C   0  0  0  0  0  0  0  0  0  0  0  0
    4.2770   -8.5711   16.0660 N   0  0  0  0  0  0  0  0  0  0  0  0
   -1.1365  -12.4435   15.8967 N   0  0  0  0  0  0  0  0  0  0  0  0
    4.7267   -7.4326   16.7072 C   0  0  0  0  0  0  0  0  0  0  0  0
   -0.7664  -10.9425   14.1868 N   0  0  0  0  0  0  0  0  0  0  0  0
    5.8875   -7.6260   17.4606 C   0  0  0  0  0  0  0  0  0  0  0  0
    2.0222   -8.8041   16.6252 C   0  0  0  0  0  0  0  0  0  0  0  0
    2.9932   -8.7414   15.6392 C   0  0  0  0  0  0  0  0  0  0  0  0
   -1.3715  -11.9842   14.7137 C   0  0  0  0  0  0  0  0  0  0  0  0
    0.9935  -11.8625   19.9148 N   0  0  0  0  0  0  0  0  0  0  0  0
   10.7009   -3.0208   18.7970 N   0  0  0  0  0  0  0  0  0  0  0  0
    8.2059   -6.8782   17.5002 C   0  0  0  0  0  0  0  0  0  0  0  0
    6.4296   -9.3227   15.3974 C   0  0  0  0  0  0  0  0  0  0  0  0
    9.5759   -4.9824   18.0493 C   0  0  0  0  0  0  0  0  0  0  0  0
   11.5078   -2.6089   20.9943 N   0  0  0  0  0  0  0  0  0  0  0  0
    0.3774  -10.6653   16.1601 C   0  0  0  0  0  0  0  0  0  0  0  0
    8.6985   -5.6330   17.2157 C   0  0  0  0  0  0  0  0  0  0  0  0
   10.9569   -3.4308   20.0344 C   0  0  0  0  0  0  0  0  0  0  0  0
    0.8007  -11.4617   18.6541 C   0  0  0  0  0  0  0  0  0  0  0  0
   10.5751   -4.7591   20.2855 C   0  0  0  0  0  0  0  0  0  0  0  0
    8.7503   -7.4721   18.5583 C   0  0  0  0  0  0  0  0  0  0  0  0
   10.8529   -5.2408   21.5575 C   0  0  0  0  0  0  0  0  0  0  0  0
   10.0445   -3.6873   17.8456 C   0  0  0  0  0  0  0  0  0  0  0  0
    9.9550   -5.5006   19.2987 C   0  0  0  0  0  0  0  0  0  0  0  0
    1.2649  -10.0058   16.9864 C   0  0  0  0  0  0  0  0  0  0  0  0
    0.0786  -10.3145   14.9018 C   0  0  0  0  0  0  0  0  0  0  0  0
  1  6  1  0
  1 21  1  0
  2  8  4  0
  2 23  4  0
  3 29  4  0
  3 32  4  0
  4 27  4  0
  4 33  4  0
  5  7  4  0
  5 27  4  0
  6 14  1  0
  6 20  1  0
  6 21  4  0
  7 11  4  0
  7 24  4  0
  8 30  4  0
  9 10  1  0
  9 21  1  0
  9 32  3  0
 10 12  1  0
 10 16  1  0
 11 17  4  0
 11 28  3  0
 12 14  1  0
 13 17  4  0
 13 34  4  0
 15 16  1  0
 15 33  1  0
 18 27  1  0
 19 26  4  0
 19 31  4  0
 20 25  4  0
 20 29  4  0
 22 25  4  0
 22 31  4  0
 22 32  4  0
 23 26  4  0
 24 33  4  0
 24 34  4  0
 26 28  4  0
 28 30  4  0
 28 32  4  0
M  END
$$$$

 Created by Python create_sdf_string function

 34 39  0  0  0  0  0  0  0  0999 V2000
    7.4514   -8.3172   15.7635 C   0  0  0  0  0  0  0  0  0  0  0  0
   11.7239   -3.0909   22.2466 C   0  0  0  0  0  0  0  0  0  0  0  0
    9.6175   -6.8561   19.4607 C   0  0  0  0  0  0  0  0  0  0  0  0
    1.4274  -10.4066   18.1947 N   0  0  0  0  0  0  0  0  0  0  0  0
   -0.0175  -12.1114   17.8942 N   0  0  0  0  0  0  0  0  0  0  0  0
    7.1535   -7.5050   16.8697 N   0  0  0  0  0  0  0  0  0  0  0  0
   -0.2660  -11.7547   16.6606 C   0  0  0  0  0  0  0  0  0  0  0  0
   11.3844   -4.4350   22.5334 C   0  0  0  0  0  0  0  0  0  0  0  0
    5.1352   -8.8644   14.9714 C   0  0  0  0  0  0  0  0  0  0  0  0
    4.2663   -8.5618   16.0621 N   0  0  0  0  0  0  0  0  0  0  0  0
   -1.1360  -12.4209   15.8867 N   0  0  0  0  0  0  0  0  0  0  0  0
    4.7255   -7.4226   16.7051 C   0  0  0  0  0  0  0  0  0  0  0  0
   -0.7672  -10.9356   14.1787 N   0  0  0  0  0  0  0  0  0  0  0  0
    5.8951   -7.6185   17.4647 C   0  0  0  0  0  0  0  0  0  0  0  0
    2.0250   -8.8171   16.6244 C   0  0  0  0  0  0  0  0  0  0  0  0
    2.9868   -8.7378   15.6531 C   0  0  0  0  0  0  0  0  0  0  0  0
   -1.3540  -11.9727   14.7014 C   0  0  0  0  0  0  0  0  0  0  0  0
    0.9881  -11.8548   19.8952 N   0  0  0  0  0  0  0  0  0  0  0  0
   10.6982   -3.0202   18.7955 N   0  0  0  0  0  0  0  0  0  0  0  0
    8.1978   -6.8824   17.5037 C   0  0  0  0  0  0  0  0  0  0  0  0
    6.4394   -9.3102   15.3994 C   0  0  0  0  0  0  0  0  0  0  0  0
    9.5585   -4.9680   18.0727 C   0  0  0  0  0  0  0  0  0  0  0  0
   11.5158   -2.6315   20.9988 N   0  0  0  0  0  0  0  0  0  0  0  0
    0.3724  -10.6632   16.1513 C   0  0  0  0  0  0  0  0  0  0  0  0
    8.6986   -5.6554   17.2160 C   0  0  0  0  0  0  0  0  0  0  0  0
   10.9515   -3.4427   20.0408 C   0  0  0  0  0  0  0  0  0  0  0  0
    0.7906  -11.4627   18.6451 C   0  0  0  0  0  0  0  0  0  0  0  0
   10.5821   -4.7611   20.2865 C   0  0  0  0  0  0  0  0  0  0  0  0
    8.7628   -7.4674   18.5765 C   0  0  0  0  0  0  0  0  0  0  0  0
   10.8492   -5.2513   21.5555 C   0  0  0  0  0  0  0  0  0  0  0  0
   10.0533   -3.6845   17.8506 C   0  0  0  0  0  0  0  0  0  0  0  0
    9.9546   -5.5003   19.2911 C   0  0  0  0  0  0  0  0  0  0  0  0
    1.2572  -10.0096   16.9814 C   0  0  0  0  0  0  0  0  0  0  0  0
    0.0858  -10.3121   14.9084 C   0  0  0  0  0  0  0  0  0  0  0  0
  1  6  1  0
  1 21  1  0
  2  8  4  0
  2 23  4  0
  3 29  4  0
  3 32  4  0
  4 27  4  0
  4 33  4  0
  5  7  4  0
  5 27  4  0
  6 14  1  0
  6 20  1  0
  7 11  4  0
  7 24  4  0
  8 30  4  0
  9 10  1  0
  9 21  1  0
 10 12  1  0
 10 16  1  0
 11 17  4  0
 12 14  1  0
 13 17  4  0
 13 34  4  0
 15 16  1  0
 15 33  1  0
 18 27  1  0
 19 26  4  0
 19 31  4  0
 20 25  4  0
 20 29  4  0
 22 25  4  0
 22 31  4  0
 22 32  4  0
 23 26  4  0
 24 33  4  0
 24 34  4  0
 26 28  4  0
 28 30  4  0
 28 32  4  0
M  END
$$$$

 Created by Python create_sdf_string function

 34 39  0  0  0  0  0  0  0  0999 V2000
    7.4554   -8.3205   15.7746 C   0  0  0  0  0  0  0  0  0  0  0  0
   11.7321   -3.0902   22.2332 C   0  0  0  0  0  0  0  0  0  0  0  0
    9.6082   -6.8642   19.4559 C   0  0  0  0  0  0  0  0  0  0  0  0
    1.4327  -10.4084   18.1942 N   0  0  0  0  0  0  0  0  0  0  0  0
   -0.0224  -12.1292   17.8933 N   0  0  0  0  0  0  0  0  0  0  0  0
    7.1625   -7.5139   16.8709 N   0  0  0  0  0  0  0  0  0  0  0  0
   -0.2770  -11.7438   16.6590 C   0  0  0  0  0  0  0  0  0  0  0  0
   11.3732   -4.4453   22.5410 C   0  0  0  0  0  0  0  0  0  0  0  0
    5.1345   -8.8570   14.9669 C   0  0  0  0  0  0  0  0  0  0  0  0
    4.2672   -8.5630   16.0614 N   0  0  0  0  0  0  0  0  0  0  0  0
   -1.1316  -12.4234   15.8748 N   0  0  0  0  0  0  0  0  0  0  0  0
    4.7342   -7.4167   16.7032 C   0  0  0  0  0  0  0  0  0  0  0  0
   -0.7640  -10.9387   14.1814 N   0  0  0  0  0  0  0  0  0  0  0  0
    5.8911   -7.6239   17.4603 C   0  0  0  0  0  0  0  0  0  0  0  0
    2.0267   -8.8136   16.6153 C   0  0  0  0  0  0  0  0  0  0  0  0
    2.9908   -8.7444   15.6530 C   0  0  0  0  0  0  0  0  0  0  0  0
   -1.3434  -11.9740   14.7020 C   0  0  0  0  0  0  0  0  0  0  0  0
    0.9752  -11.8577   19.8999 N   0  0  0  0  0  0  0  0  0  0  0  0
   10.7044   -3.0166   18.7993 N   0  0  0  0  0  0  0  0  0  0  0  0
    8.1933   -6.8879   17.5152 C   0  0  0  0  0  0  0  0  0  0  0  0
    6.4409   -9.3214   15.3941 C   0  0  0  0  0  0  0  0  0  0  0  0
    9.5654   -4.9770   18.0777 C   0  0  0  0  0  0  0  0  0  0  0  0
   11.5021   -2.6309   21.0010 N   0  0  0  0  0  0  0  0  0  0  0  0
    0.3791  -10.6668   16.1455 C   0  0  0  0  0  0  0  0  0  0  0  0
    8.7039   -5.6522   17.2042 C   0  0  0  0  0  0  0  0  0  0  0  0
   10.9595   -3.4497   20.0300 C   0  0  0  0  0  0  0  0  0  0  0  0
    0.7941  -11.4657   18.6447 C   0  0  0  0  0  0  0  0  0  0  0  0
   10.5739   -4.7524   20.2946 C   0  0  0  0  0  0  0  0  0  0  0  0
    8.7517   -7.4619   18.5817 C   0  0  0  0  0  0  0  0  0  0  0  0
   10.8389   -5.2440   21.5630 C   0  0  0  0  0  0  0  0  0  0  0  0
   10.0542   -3.6780   17.8502 C   0  0  0  0  0  0  0  0  0  0  0  0
    9.9473   -5.5002   19.2896 C   0  0  0  0  0  0  0  0  0  0  0  0
    1.2644  -10.0014   16.9732 C   0  0  0  0  0  0  0  0  0  0  0  0
    0.0951  -10.3134   14.9066 C   0  0  0  0  0  0  0  0  0  0  0  0
  1  6  1  0
  1 21  1  0
  2  8  4  0
  2 23  4  0
  3 29  4  0
  3 32  4  0
  4 27  4  0
  4 33  4  0
  5  7  4  0
  5 27  4  0
  6 14  1  0
  6 20  1  0
  7 11  4  0
  7 24  4  0
  8 30  4  0
  9 10  1  0
  9 21  1  0
 10 12  1  0
 10 16  1  0
 11 17  4  0
 12 14  1  0
 13 17  4  0
 13 34  4  0
 15 16  1  0
 15 33  1  0
 18 27  1  0
 19 26  4  0
 19 31  4  0
 20 25  4  0
 20 29  4  0
 22 25  4  0
 22 31  4  0
 22 32  4  0
 23 26  4  0
 24 33  4  0
 24 34  2  0
 26 28  4  0
 28 30  4  0
 28 32  4  0
M  END
$$$$

 Created by Python create_sdf_string function

 34 39  0  0  0  0  0  0  0  0999 V2000
    7.4588   -8.3143   15.7820 C   0  0  0  0  0  0  0  0  0  0  0  0
   11.7287   -3.1127   22.2347 C   0  0  0  0  0  0  0  0  0  0  0  0
    9.6091   -6.8538   19.4712 C   0  0  0  0  0  0  0  0  0  0  0  0
    1.4261  -10.4113   18.1829 N   0  0  0  0  0  0  0  0  0  0  0  0
   -0.0240  -12.1028   17.8775 N   0  0  0  0  0  0  0  0  0  0  0  0
    7.1649   -7.5150   16.8859 N   0  0  0  0  0  0  0  0  0  0  0  0
   -0.2675  -11.7417   16.6449 C   0  0  0  0  0  0  0  0  0  0  0  0
   11.3788   -4.4458   22.5317 C   0  0  0  0  0  0  0  0  0  0  0  0
    5.1350   -8.8663   14.9780 C   0  0  0  0  0  0  0  0  0  0  0  0
    4.2719   -8.5539   16.0644 N   0  0  0  0  0  0  0  0  0  0  0  0
   -1.1325  -12.4006   15.8680 N   0  0  0  0  0  0  0  0  0  0  0  0
    4.7471   -7.4164   16.6934 C   0  0  0  0  0  0  0  0  0  0  0  0
   -0.7490  -10.9267   14.1811 N   0  0  0  0  0  0  0  0  0  0  0  0
    5.9012   -7.6196   17.4570 C   0  0  0  0  0  0  0  0  0  0  0  0
    2.0286   -8.8230   16.6125 C   0  0  0  0  0  0  0  0  0  0  0  0
    2.9874   -8.7429   15.6571 C   0  0  0  0  0  0  0  0  0  0  0  0
   -1.3309  -11.9533   14.6865 C   0  0  0  0  0  0  0  0  0  0  0  0
    0.9713  -11.8509   19.8764 N   0  0  0  0  0  0  0  0  0  0  0  0
   10.6999   -3.0276   18.7987 N   0  0  0  0  0  0  0  0  0  0  0  0
    8.1935   -6.8905   17.5163 C   0  0  0  0  0  0  0  0  0  0  0  0
    6.4512   -9.3095   15.4017 C   0  0  0  0  0  0  0  0  0  0  0  0
    9.5564   -4.9695   18.0770 C   0  0  0  0  0  0  0  0  0  0  0  0
   11.5151   -2.6531   20.9990 N   0  0  0  0  0  0  0  0  0  0  0  0
    0.3730  -10.6630   16.1434 C   0  0  0  0  0  0  0  0  0  0  0  0
    8.7004   -5.6689   17.2166 C   0  0  0  0  0  0  0  0  0  0  0  0
   10.9517   -3.4514   20.0399 C   0  0  0  0  0  0  0  0  0  0  0  0
    0.7847  -11.4624   18.6354 C   0  0  0  0  0  0  0  0  0  0  0  0
   10.5763   -4.7651   20.2888 C   0  0  0  0  0  0  0  0  0  0  0  0
    8.7556   -7.4623   18.5918 C   0  0  0  0  0  0  0  0  0  0  0  0
   10.8363   -5.2588   21.5578 C   0  0  0  0  0  0  0  0  0  0  0  0
   10.0554   -3.6854   17.8548 C   0  0  0  0  0  0  0  0  0  0  0  0
    9.9471   -5.5022   19.2958 C   0  0  0  0  0  0  0  0  0  0  0  0
    1.2615  -10.0081   16.9729 C   0  0  0  0  0  0  0  0  0  0  0  0
    0.0959  -10.3103   14.9005 C   0  0  0  0  0  0  0  0  0  0  0  0
  1  6  1  0
  1 21  1  0
  2  8  4  0
  2 23  4  0
  3 29  4  0
  3 32  4  0
  4 27  4  0
  4 33  4  0
  5  7  4  0
  5 27  4  0
  6 14  1  0
  6 20  1  0
  7 11  4  0
  7 24  4  0
  8 30  4  0
  9 10  1  0
  9 21  1  0
 10 12  1  0
 10 16  1  0
 11 17  4  0
 12 14  1  0
 13 17  4  0
 13 34  4  0
 15 16  1  0
 15 33  1  0
 18 27  1  0
 19 26  4  0
 19 31  4  0
 20 25  4  0
 20 29  4  0
 22 25  4  0
 22 31  4  0
 22 32  4  0
 23 26  4  0
 24 33  4  0
 24 34  4  0
 26 28  4  0
 28 30  4  0
 28 32  4  0
M  END
$$$$

 Created by Python create_sdf_string function

 34 39  0  0  0  0  0  0  0  0999 V2000
    7.4596   -8.3083   15.7765 C   0  0  0  0  0  0  0  0  0  0  0  0
   11.7298   -3.1094   22.2344 C   0  0  0  0  0  0  0  0  0  0  0  0
    9.6116   -6.8548   19.4672 C   0  0  0  0  0  0  0  0  0  0  0  0
    1.4303  -10.4110   18.1875 N   0  0  0  0  0  0  0  0  0  0  0  0
   -0.0223  -12.1027   17.8796 N   0  0  0  0  0  0  0  0  0  0  0  0
    7.1669   -7.5104   16.8866 N   0  0  0  0  0  0  0  0  0  0  0  0
   -0.2697  -11.7351   16.6500 C   0  0  0  0  0  0  0  0  0  0  0  0
   11.3783   -4.4480   22.5267 C   0  0  0  0  0  0  0  0  0  0  0  0
    5.1334   -8.8603   14.9765 C   0  0  0  0  0  0  0  0  0  0  0  0
    4.2770   -8.5533   16.0693 N   0  0  0  0  0  0  0  0  0  0  0  0
   -1.1336  -12.4114   15.8639 N   0  0  0  0  0  0  0  0  0  0  0  0
    4.7448   -7.4143   16.7010 C   0  0  0  0  0  0  0  0  0  0  0  0
   -0.7500  -10.9339   14.1812 N   0  0  0  0  0  0  0  0  0  0  0  0
    5.8988   -7.6266   17.4607 C   0  0  0  0  0  0  0  0  0  0  0  0
    2.0313   -8.8204   16.6143 C   0  0  0  0  0  0  0  0  0  0  0  0
    2.9902   -8.7510   15.6583 C   0  0  0  0  0  0  0  0  0  0  0  0
   -1.3293  -11.9600   14.6837 C   0  0  0  0  0  0  0  0  0  0  0  0
    0.9703  -11.8559   19.8736 N   0  0  0  0  0  0  0  0  0  0  0  0
   10.7044   -3.0254   18.7953 N   0  0  0  0  0  0  0  0  0  0  0  0
    8.1914   -6.8862   17.5174 C   0  0  0  0  0  0  0  0  0  0  0  0
    6.4475   -9.3135   15.4027 C   0  0  0  0  0  0  0  0  0  0  0  0
    9.5548   -4.9665   18.0861 C   0  0  0  0  0  0  0  0  0  0  0  0
   11.5084   -2.6540   20.9997 N   0  0  0  0  0  0  0  0  0  0  0  0
    0.3647  -10.6604   16.1467 C   0  0  0  0  0  0  0  0  0  0  0  0
    8.6979   -5.6669   17.2229 C   0  0  0  0  0  0  0  0  0  0  0  0
   10.9542   -3.4495   20.0480 C   0  0  0  0  0  0  0  0  0  0  0  0
    0.7869  -11.4593   18.6410 C   0  0  0  0  0  0  0  0  0  0  0  0
   10.5835   -4.7633   20.2897 C   0  0  0  0  0  0  0  0  0  0  0  0
    8.7571   -7.4626   18.5865 C   0  0  0  0  0  0  0  0  0  0  0  0
   10.8391   -5.2595   21.5614 C   0  0  0  0  0  0  0  0  0  0  0  0
   10.0625   -3.6829   17.8536 C   0  0  0  0  0  0  0  0  0  0  0  0
    9.9489   -5.5011   19.2945 C   0  0  0  0  0  0  0  0  0  0  0  0
    1.2588  -10.0059   16.9762 C   0  0  0  0  0  0  0  0  0  0  0  0
    0.0963  -10.3075   14.9007 C   0  0  0  0  0  0  0  0  0  0  0  0
  1  6  1  0
  1 21  1  0
  2  8  4  0
  2 23  4  0
  3 29  4  0
  3 32  4  0
  4 27  4  0
  4 33  4  0
  5  7  4  0
  5 27  4  0
  6 14  1  0
  6 20  1  0
  7 11  4  0
  7 24  4  0
  8 30  4  0
  9 10  1  0
  9 21  1  0
 10 12  1  0
 10 16  1  0
 11 17  4  0
 12 14  1  0
 13 17  4  0
 13 34  4  0
 15 16  1  0
 15 33  1  0
 18 27  1  0
 19 26  4  0
 19 31  4  0
 20 25  4  0
 20 29  4  0
 22 25  4  0
 22 31  4  0
 22 32  4  0
 23 26  4  0
 24 33  4  0
 24 34  4  0
 26 28  4  0
 28 30  4  0
 28 32  4  0
M  END
$$$$

 Created by Python create_sdf_string function

 34 39  0  0  0  0  0  0  0  0999 V2000
    7.4604   -8.3049   15.7819 C   0  0  0  0  0  0  0  0  0  0  0  0
   11.7316   -3.1252   22.2390 C   0  0  0  0  0  0  0  0  0  0  0  0
    9.6137   -6.8501   19.4805 C   0  0  0  0  0  0  0  0  0  0  0  0
    1.4223  -10.4105   18.1796 N   0  0  0  0  0  0  0  0  0  0  0  0
   -0.0335  -12.0970   17.8738 N   0  0  0  0  0  0  0  0  0  0  0  0
    7.1664   -7.5179   16.8924 N   0  0  0  0  0  0  0  0  0  0  0  0
   -0.2702  -11.7331   16.6372 C   0  0  0  0  0  0  0  0  0  0  0  0
   11.3832   -4.4589   22.5253 C   0  0  0  0  0  0  0  0  0  0  0  0
    5.1345   -8.8707   14.9860 C   0  0  0  0  0  0  0  0  0  0  0  0
    4.2752   -8.5492   16.0696 N   0  0  0  0  0  0  0  0  0  0  0  0
   -1.1370  -12.3956   15.8545 N   0  0  0  0  0  0  0  0  0  0  0  0
    4.7534   -7.4107   16.6936 C   0  0  0  0  0  0  0  0  0  0  0  0
   -0.7470  -10.9241   14.1655 N   0  0  0  0  0  0  0  0  0  0  0  0
    5.9027   -7.6186   17.4635 C   0  0  0  0  0  0  0  0  0  0  0  0
    2.0261   -8.8175   16.6148 C   0  0  0  0  0  0  0  0  0  0  0  0
    2.9940   -8.7462   15.6566 C   0  0  0  0  0  0  0  0  0  0  0  0
   -1.3240  -11.9487   14.6721 C   0  0  0  0  0  0  0  0  0  0  0  0
    0.9661  -11.8524   19.8641 N   0  0  0  0  0  0  0  0  0  0  0  0
   10.7040   -3.0272   18.8064 N   0  0  0  0  0  0  0  0  0  0  0  0
    8.1973   -6.8919   17.5282 C   0  0  0  0  0  0  0  0  0  0  0  0
    6.4556   -9.3059   15.4055 C   0  0  0  0  0  0  0  0  0  0  0  0
    9.5555   -4.9723   18.0938 C   0  0  0  0  0  0  0  0  0  0  0  0
   11.5204   -2.6665   21.0013 N   0  0  0  0  0  0  0  0  0  0  0  0
    0.3704  -10.6565   16.1354 C   0  0  0  0  0  0  0  0  0  0  0  0
    8.6941   -5.6721   17.2329 C   0  0  0  0  0  0  0  0  0  0  0  0
   10.9541   -3.4577   20.0471 C   0  0  0  0  0  0  0  0  0  0  0  0
    0.7769  -11.4588   18.6255 C   0  0  0  0  0  0  0  0  0  0  0  0
   10.5796   -4.7676   20.2925 C   0  0  0  0  0  0  0  0  0  0  0  0
    8.7610   -7.4623   18.6013 C   0  0  0  0  0  0  0  0  0  0  0  0
   10.8395   -5.2750   21.5564 C   0  0  0  0  0  0  0  0  0  0  0  0
   10.0587   -3.6895   17.8645 C   0  0  0  0  0  0  0  0  0  0  0  0
    9.9473   -5.5015   19.3030 C   0  0  0  0  0  0  0  0  0  0  0  0
    1.2545  -10.0075   16.9686 C   0  0  0  0  0  0  0  0  0  0  0  0
    0.0910  -10.3066   14.8952 C   0  0  0  0  0  0  0  0  0  0  0  0
  1  6  1  0
  1 21  1  0
  2  8  4  0
  2 23  4  0
  3 29  4  0
  3 32  4  0
  4 27  4  0
  4 33  4  0
  5  7  4  0
  5 27  4  0
  6 14  1  0
  6 20  1  0
  7 11  4  0
  7 24  4  0
  8 30  4  0
  9 10  1  0
  9 21  1  0
 10 12  1  0
 10 16  1  0
 11 17  4  0
 12 14  1  0
 13 17  4  0
 13 34  4  0
 15 16  1  0
 15 33  1  0
 18 27  1  0
 19 26  4  0
 19 31  4  0
 20 25  4  0
 20 29  4  0
 22 25  4  0
 22 31  4  0
 22 32  4  0
 23 26  4  0
 24 33  4  0
 24 34  4  0
 26 28  4  0
 28 30  4  0
 28 32  4  0
M  END
$$$$

 Created by Python create_sdf_string function

 34 39  0  0  0  0  0  0  0  0999 V2000
    7.4604   -8.3049   15.7819 C   0  0  0  0  0  0  0  0  0  0  0  0
   11.7316   -3.1252   22.2390 C   0  0  0  0  0  0  0  0  0  0  0  0
    9.6137   -6.8501   19.4805 C   0  0  0  0  0  0  0  0  0  0  0  0
    1.4223  -10.4105   18.1796 N   0  0  0  0  0  0  0  0  0  0  0  0
   -0.0335  -12.0970   17.8738 N   0  0  0  0  0  0  0  0  0  0  0  0
    7.1664   -7.5179   16.8924 N   0  0  0  0  0  0  0  0  0  0  0  0
   -0.2702  -11.7331   16.6372 C   0  0  0  0  0  0  0  0  0  0  0  0
   11.3832   -4.4589   22.5253 C   0  0  0  0  0  0  0  0  0  0  0  0
    5.1345   -8.8707   14.9860 C   0  0  0  0  0  0  0  0  0  0  0  0
    4.2752   -8.5492   16.0696 N   0  0  0  0  0  0  0  0  0  0  0  0
   -1.1370  -12.3956   15.8545 N   0  0  0  0  0  0  0  0  0  0  0  0
    4.7534   -7.4107   16.6936 C   0  0  0  0  0  0  0  0  0  0  0  0
   -0.7470  -10.9241   14.1655 N   0  0  0  0  0  0  0  0  0  0  0  0
    5.9027   -7.6186   17.4635 C   0  0  0  0  0  0  0  0  0  0  0  0
    2.0261   -8.8175   16.6148 C   0  0  0  0  0  0  0  0  0  0  0  0
    2.9940   -8.7462   15.6566 C   0  0  0  0  0  0  0  0  0  0  0  0
   -1.3240  -11.9487   14.6721 C   0  0  0  0  0  0  0  0  0  0  0  0
    0.9661  -11.8524   19.8641 N   0  0  0  0  0  0  0  0  0  0  0  0
   10.7040   -3.0272   18.8064 N   0  0  0  0  0  0  0  0  0  0  0  0
    8.1973   -6.8919   17.5282 C   0  0  0  0  0  0  0  0  0  0  0  0
    6.4556   -9.3059   15.4055 C   0  0  0  0  0  0  0  0  0  0  0  0
    9.5555   -4.9723   18.0938 C   0  0  0  0  0  0  0  0  0  0  0  0
   11.5204   -2.6665   21.0013 N   0  0  0  0  0  0  0  0  0  0  0  0
    0.3704  -10.6565   16.1354 C   0  0  0  0  0  0  0  0  0  0  0  0
    8.6941   -5.6721   17.2329 C   0  0  0  0  0  0  0  0  0  0  0  0
   10.9541   -3.4577   20.0471 C   0  0  0  0  0  0  0  0  0  0  0  0
    0.7769  -11.4588   18.6255 C   0  0  0  0  0  0  0  0  0  0  0  0
   10.5796   -4.7676   20.2925 C   0  0  0  0  0  0  0  0  0  0  0  0
    8.7610   -7.4623   18.6013 C   0  0  0  0  0  0  0  0  0  0  0  0
   10.8395   -5.2750   21.5564 C   0  0  0  0  0  0  0  0  0  0  0  0
   10.0587   -3.6895   17.8645 C   0  0  0  0  0  0  0  0  0  0  0  0
    9.9473   -5.5015   19.3030 C   0  0  0  0  0  0  0  0  0  0  0  0
    1.2545  -10.0075   16.9686 C   0  0  0  0  0  0  0  0  0  0  0  0
    0.0910  -10.3066   14.8952 C   0  0  0  0  0  0  0  0  0  0  0  0
  1  6  1  0
  1 21  1  0
  2  8  4  0
  2 23  4  0
  3 29  4  0
  3 32  4  0
  4 27  4  0
  4 33  4  0
  5  7  4  0
  5 27  4  0
  6 14  1  0
  6 20  1  0
  7 11  4  0
  7 24  4  0
  8 30  4  0
  9 10  1  0
  9 21  1  0
 10 12  1  0
 10 16  1  0
 11 17  4  0
 12 14  1  0
 13 17  4  0
 13 34  4  0
 15 16  1  0
 15 33  1  0
 18 27  1  0
 19 26  4  0
 19 31  4  0
 20 25  4  0
 20 29  4  0
 22 25  4  0
 22 31  4  0
 22 32  4  0
 23 26  4  0
 24 33  4  0
 24 34  4  0
 26 28  4  0
 28 30  4  0
 28 32  4  0
M  END
$$$$

 Created by Python create_sdf_string function

 34 94  0  0  0  0  0  0  0  0999 V2000
    7.0581   -8.8390   16.7173 O   0  0  0  0  0  0  0  0  0  0  0  0
   11.8836   -2.8983   22.1185 C   0  0  0  0  0  0  0  0  0  0  0  0
    0.1512  -11.9788   17.4974 C   0  0  0  0  0  0  0  0  0  0  0  0
    7.1829   -6.8877   16.8018 N   0  0  0  0  0  0  0  0  0  0  0  0
   11.7525   -4.4340   22.2969 C   0  0  0  0  0  0  0  0  0  0  0  0
    7.6051   -7.9735   16.6606 C   0  0  0  0  0  0  0  0  0  0  0  0
    7.0708   -9.0636   15.8234 Cl  0  0  0  0  0  0  0  0  0  0  0  0
    7.4085   -7.8852   16.4831 F   0  0  0  0  0  0  0  0  0  0  0  0
    7.3568   -9.6313   19.3661 F   0  0  0  0  0  0  0  0  0  0  0  0
    6.5248   -8.1466   17.0013 N   0  0  0  0  0  0  0  0  0  0  0  0
    8.2836   -9.0600   18.0401 O   0  0  0  0  0  0  0  0  0  0  0  0
    0.8479  -11.7999   20.2498 O   0  0  0  0  0  0  0  0  0  0  0  0
   10.7754   -3.3684   19.0015 N   0  0  0  0  0  0  0  0  0  0  0  0
    8.6082   -6.7006   17.5408 C   0  0  0  0  0  0  0  0  0  0  0  0
    7.5965   -8.3383   17.3968 O   0  0  0  0  0  0  0  0  0  0  0  0
    9.2949   -4.9568   18.2370 C   0  0  0  0  0  0  0  0  0  0  0  0
   11.8858   -3.2277   20.5834 N   0  0  0  0  0  0  0  0  0  0  0  0
    8.7267   -5.5314   17.1632 C   0  0  0  0  0  0  0  0  0  0  0  0
   10.8153   -3.4930   19.6982 C   0  0  0  0  0  0  0  0  0  0  0  0
    1.0308  -11.5872   18.5864 C   0  0  0  0  0  0  0  0  0  0  0  0
   10.7030   -4.6103   20.4499 Cl  0  0  0  0  0  0  0  0  0  0  0  0
    9.1574   -7.0039   18.6167 C   0  0  0  0  0  0  0  0  0  0  0  0
   11.1006   -5.1314   21.9809 N   0  0  0  0  0  0  0  0  0  0  0  0
    9.6568   -3.6256   17.0892 C   0  0  0  0  0  0  0  0  0  0  0  0
    9.8933   -5.7356   18.9322 C   0  0  0  0  0  0  0  0  0  0  0  0
    9.6662   -6.8620   19.6017 He  0  0  0  0  0  0  0  0  0  0  0  0
    7.1339   -9.4570   17.2350 He  0  0  0  0  0  0  0  0  0  0  0  0
    8.3137   -6.4197   18.0873 He  0  0  0  0  0  0  0  0  0  0  0  0
    7.2615   -8.0149   16.3668 He  0  0  0  0  0  0  0  0  0  0  0  0
    7.5397   -9.0666   16.1357 He  0  0  0  0  0  0  0  0  0  0  0  0
    6.6683  -10.2066   16.2443 He  0  0  0  0  0  0  0  0  0  0  0  0
    9.3903   -7.1290   17.8100 He  0  0  0  0  0  0  0  0  0  0  0  0
    7.2625   -7.9902   16.3939 He  0  0  0  0  0  0  0  0  0  0  0  0
    6.7930   -7.9135   16.9346 He  0  0  0  0  0  0  0  0  0  0  0  0
  1  2  2  0
  1  4  4  0
  1  6  1  0
  1  7  4  0
  1 11  3  0
  1 16  3  0
  1 18  2  0
  1 19  1  0
  1 20  1  0
  1 25  1  0
  2  5  4  0
  2  7  2  0
  2 10  4  0
  2 11  3  0
  2 17  1  0
  2 20  2  0
  2 22  3  0
  2 24  3  0
  3  7  1  0
  3 15  2  0
  3 19  3  0
  3 20  4  0
  3 24  2  0
  4  6  1  0
  4  7  1  0
  4  8  4  0
  4 11  1  0
  4 12  1  0
  4 15  1  0
  4 25  1  0
  5  7  1  0
  5  9  3  0
  5 10  1  0
  5 11  1  0
  5 13  1  0
  5 16  3  0
  5 23  4  0
  6  7  1  0
  6  9  4  0
  6 10  3  0
  6 12  2  0
  6 13  3  0
  6 20  4  0
  6 24  2  0
  7  8  3  0
  7 11  2  0
  7 13  1  0
  7 14  2  0
  7 17  3  0
  7 18  2  0
  7 19  3  0
  7 21  2  0
  7 22  4  0
  7 24  2  0
  8  9  2  0
  8 10  4  0
  8 11  3  0
  8 15  4  0
  8 16  2  0
  8 18  2  0
  8 19  2  0
  8 20  3  0
  8 23  1  0
  8 25  1  0
  9 11  2  0
  9 19  1  0
 10 13  3  0
 10 18  4  0
 10 22  4  0
 10 23  2  0
 10 24  3  0
 10 25  1  0
 11 13  1  0
 11 16  3  0
 11 17  2  0
 11 21  4  0
 13 15  2  0
 13 19  4  0
 13 24  4  0
 14 15  4  0
 14 18  2  0
 14 20  2  0
 15 20  3  0
 15 21  1  0
 16 18  4  0
 16 23  3  0
 16 24  4  0
 16 25  4  0
 17 18  3  0
 17 19  4  0
 19 21  1  0
 21 22  4  0
 21 23  4  0
 24 25  1  0
M  END
$$$$

 Created by Python create_sdf_string function

 34 17  0  0  0  0  0  0  0  0999 V2000
    5.5839   -9.3471   16.9886 C   0  0  0  0  0  0  0  0  0  0  0  0
   12.0028   -2.9794   22.0893 C   0  0  0  0  0  0  0  0  0  0  0  0
    9.9663   -6.8572   19.5066 F   0  0  0  0  0  0  0  0  0  0  0  0
    4.8958   -9.7994   17.6011 C   0  0  0  0  0  0  0  0  0  0  0  0
    1.1208  -11.1961   17.9187 C   0  0  0  0  0  0  0  0  0  0  0  0
    7.0540   -6.2441   16.4306 F   0  0  0  0  0  0  0  0  0  0  0  0
    8.0875   -6.4927   17.7233 F   0  0  0  0  0  0  0  0  0  0  0  0
   11.6183   -4.2510   22.5415 C   0  0  0  0  0  0  0  0  0  0  0  0
    6.7657   -7.7486   15.9370 F   0  0  0  0  0  0  0  0  0  0  0  0
    7.4406   -7.7072   16.3799 C   0  0  0  0  0  0  0  0  0  0  0  0
    6.3573   -9.3154   15.7741 F   0  0  0  0  0  0  0  0  0  0  0  0
    7.1579   -7.5638   16.0245 F   0  0  0  0  0  0  0  0  0  0  0  0
    7.2692   -8.8620   15.7114 F   0  0  0  0  0  0  0  0  0  0  0  0
    5.8041   -9.0968   18.6694 F   0  0  0  0  0  0  0  0  0  0  0  0
    4.6669   -9.1885   17.4171 C   0  0  0  0  0  0  0  0  0  0  0  0
    5.4862  -10.1639   16.7422 C   0  0  0  0  0  0  0  0  0  0  0  0
    8.0435   -8.8372   17.8420 F   0  0  0  0  0  0  0  0  0  0  0  0
    2.0155  -11.4238   19.3287 O   0  0  0  0  0  0  0  0  0  0  0  0
   10.9121   -2.9227   18.6443 N   0  0  0  0  0  0  0  0  0  0  0  0
    8.4936   -6.2835   17.3687 C   0  0  0  0  0  0  0  0  0  0  0  0
    7.1605   -8.1409   17.5474 F   0  0  0  0  0  0  0  0  0  0  0  0
    9.8442   -4.8596   18.0907 C   0  0  0  0  0  0  0  0  0  0  0  0
   11.6839   -2.5860   20.8005 N   0  0  0  0  0  0  0  0  0  0  0  0
    9.2827   -7.5003   17.5655 F   0  0  0  0  0  0  0  0  0  0  0  0
    8.7378   -5.0197   16.7038 F   0  0  0  0  0  0  0  0  0  0  0  0
   11.0904   -3.4076   19.8948 C   0  0  0  0  0  0  0  0  0  0  0  0
    2.2158  -11.0315   18.4616 C   0  0  0  0  0  0  0  0  0  0  0  0
   10.7395   -4.7016   20.3009 C   0  0  0  0  0  0  0  0  0  0  0  0
    9.4081   -7.5226   18.7016 C   0  0  0  0  0  0  0  0  0  0  0  0
   10.9958   -5.1647   21.6521 C   0  0  0  0  0  0  0  0  0  0  0  0
   10.3083   -3.4556   17.6271 C   0  0  0  0  0  0  0  0  0  0  0  0
   10.1385   -5.4508   19.1970 C   0  0  0  0  0  0  0  0  0  0  0  0
    7.0139   -7.7627   16.0398 F   0  0  0  0  0  0  0  0  0  0  0  0
    5.5623   -8.1766   17.1298 F   0  0  0  0  0  0  0  0  0  0  0  0
  2  8  4  0
  2 23  4  0
  3 29  4  0
  3 32  4  0
  5 27  1  0
  7 20  1  0
  8 30  4  0
 18 27  1  0
 19 26  4  0
 19 31  4  0
 20 25  4  0
 22 31  4  0
 22 32  4  0
 23 26  4  0
 26 28  4  0
 28 30  4  0
 28 32  4  0
M  END
$$$$

 Created by Python create_sdf_string function

 34100  0  0  0  0  0  0  0  0999 V2000
   12.0925   -2.4467   22.5419 P   0  0  0  0  0  0  0  0  0  0  0  0
   10.0250   -6.7185   20.0110 F   0  0  0  0  0  0  0  0  0  0  0  0
    5.9434   -8.8875   18.5302 N   0  0  0  0  0  0  0  0  0  0  0  0
    1.4262  -11.4059   18.2226 S   0  0  0  0  0  0  0  0  0  0  0  0
    7.4229   -6.8570   16.6731 F   0  0  0  0  0  0  0  0  0  0  0  0
    9.1671   -4.3469   17.5556 O   0  0  0  0  0  0  0  0  0  0  0  0
   11.5840   -4.2733   22.7740 C   0  0  0  0  0  0  0  0  0  0  0  0
    7.8742   -8.5184   15.9984 C   0  0  0  0  0  0  0  0  0  0  0  0
    6.4637   -8.3622   14.8956 F   0  0  0  0  0  0  0  0  0  0  0  0
    6.5546   -8.1430   15.9920 C   0  0  0  0  0  0  0  0  0  0  0  0
    5.1732   -9.3344   18.6371 O   0  0  0  0  0  0  0  0  0  0  0  0
    5.6875  -11.9312   17.4282 F   0  0  0  0  0  0  0  0  0  0  0  0
    1.5898  -10.8303   19.8801 O   0  0  0  0  0  0  0  0  0  0  0  0
   10.4925   -2.6123   18.4573 N   0  0  0  0  0  0  0  0  0  0  0  0
    8.2939   -6.6047   17.0434 C   0  0  0  0  0  0  0  0  0  0  0  0
    8.0134   -7.4553   18.7830 F   0  0  0  0  0  0  0  0  0  0  0  0
   10.1570   -4.5593   18.2488 C   0  0  0  0  0  0  0  0  0  0  0  0
   11.3458   -2.5174   21.6894 N   0  0  0  0  0  0  0  0  0  0  0  0
    8.6843   -4.5463   17.0327 F   0  0  0  0  0  0  0  0  0  0  0  0
    2.6262  -11.7665   18.5978 C   0  0  0  0  0  0  0  0  0  0  0  0
   10.7618   -4.9477   21.6018 C   0  0  0  0  0  0  0  0  0  0  0  0
   10.2067   -4.1632   17.6474 C   0  0  0  0  0  0  0  0  0  0  0  0
    9.7322   -5.7240   19.2922 Cl  0  0  0  0  0  0  0  0  0  0  0  0
    5.3408   -7.6913   18.1464 C   0  0  0  0  0  0  0  0  0  0  0  0
    7.3699   -9.8699   15.8987 He  0  0  0  0  0  0  0  0  0  0  0  0
    6.0085   -7.7337   16.6407 He  0  0  0  0  0  0  0  0  0  0  0  0
    7.1228   -6.1585   16.1237 He  0  0  0  0  0  0  0  0  0  0  0  0
    4.5142  -10.1958   16.8251 He  0  0  0  0  0  0  0  0  0  0  0  0
    7.2609   -8.1320   18.6535 He  0  0  0  0  0  0  0  0  0  0  0  0
    9.9543   -7.5226   18.1919 He  0  0  0  0  0  0  0  0  0  0  0  0
   10.9412   -2.9232   20.0501 He  0  0  0  0  0  0  0  0  0  0  0  0
   10.6143   -4.0969   20.6366 He  0  0  0  0  0  0  0  0  0  0  0  0
    9.2697   -7.6471   18.1139 He  0  0  0  0  0  0  0  0  0  0  0  0
    6.7724   -8.7815   15.5066 He  0  0  0  0  0  0  0  0  0  0  0  0
  1  6  3  0
  1  7  4  0
  1 10  1  0
  1 15  3  0
  1 16  1  0
  1 18  4  0
  1 24  2  0
  2  3  1  0
  2  4  3  0
  2  5  2  0
  2  8  4  0
  2  9  1  0
  2 11  3  0
  2 12  3  0
  2 20  4  0
  2 23  4  0
  3  4  3  0
  3  6  3  0
  3  8  4  0
  3  9  4  0
  3 10  3  0
  3 14  1  0
  3 15  3  0
  3 16  4  0
  3 23  3  0
  4  6  3  0
  4  8  1  0
  4 10  1  0
  4 14  2  0
  4 16  1  0
  4 18  2  0
  4 20  1  0
  4 23  3  0
  5  6  1  0
  5 10  3  0
  5 15  2  0
  5 24  3  0
  6  9  1  0
  6 10  2  0
  6 11  1  0
  6 13  4  0
  6 17  1  0
  6 23  2  0
  6 24  4  0
  7  8  3  0
  7 10  4  0
  7 11  2  0
  7 20  3  0
  7 21  4  0
  8  9  1  0
  8 12  3  0
  8 14  2  0
  8 15  4  0
  8 19  2  0
  8 20  2  0
  8 21  1  0
  8 24  4  0
  9 10  1  0
  9 11  4  0
  9 12  3  0
  9 16  4  0
  9 17  1  0
  9 18  4  0
  9 19  3  0
  9 20  1  0
  9 21  1  0
  9 24  2  0
 10 11  1  0
 10 13  4  0
 10 18  2  0
 10 22  3  0
 11 12  2  0
 11 14  4  0
 11 16  4  0
 11 17  2  0
 11 24  3  0
 12 16  4  0
 12 17  3  0
 12 22  4  0
 12 24  2  0
 13 20  1  0
 14 16  1  0
 14 20  2  0
 14 22  4  0
 14 23  4  0
 14 24  4  0
 15 19  4  0
 15 23  3  0
 15 24  2  0
 16 18  1  0
 16 19  4  0
 16 20  3  0
 16 24  1  0
 17 22  4  0
 17 23  4  0
 18 23  3  0
 18 24  1  0
 19 23  3  0
 19 24  1  0
 21 24  2  0
M  END
$$$$

 Created by Python create_sdf_string function

 34 18  0  0  0  0  0  0  0  0999 V2000
    6.8568   -9.4690   15.6595 F   0  0  0  0  0  0  0  0  0  0  0  0
   11.4992   -2.8721   22.5094 C   0  0  0  0  0  0  0  0  0  0  0  0
   10.2642   -6.6541   19.7400 F   0  0  0  0  0  0  0  0  0  0  0  0
    5.3721   -9.0700   17.9604 C   0  0  0  0  0  0  0  0  0  0  0  0
    2.0441  -11.1257   18.3360 O   0  0  0  0  0  0  0  0  0  0  0  0
    7.5348   -6.6400   16.4733 F   0  0  0  0  0  0  0  0  0  0  0  0
    9.7803   -4.3827   16.7941 F   0  0  0  0  0  0  0  0  0  0  0  0
   11.2981   -4.2202   22.8037 C   0  0  0  0  0  0  0  0  0  0  0  0
    7.8755   -8.2352   15.9440 C   0  0  0  0  0  0  0  0  0  0  0  0
    5.6388   -7.7904   16.8362 F   0  0  0  0  0  0  0  0  0  0  0  0
    6.4855   -8.4865   15.3694 F   0  0  0  0  0  0  0  0  0  0  0  0
    7.0777   -6.2807   15.7264 F   0  0  0  0  0  0  0  0  0  0  0  0
    6.3005   -8.3008   15.9349 C   0  0  0  0  0  0  0  0  0  0  0  0
    4.4850   -9.8014   18.1813 C   0  0  0  0  0  0  0  0  0  0  0  0
    3.6071   -9.8591   17.5201 C   0  0  0  0  0  0  0  0  0  0  0  0
    4.5822  -10.6715   17.6519 C   0  0  0  0  0  0  0  0  0  0  0  0
    7.3332   -8.0325   18.1440 F   0  0  0  0  0  0  0  0  0  0  0  0
    2.4656  -11.4336   19.3720 O   0  0  0  0  0  0  0  0  0  0  0  0
   10.9862   -2.7268   18.9050 N   0  0  0  0  0  0  0  0  0  0  0  0
    8.5114   -6.3669   17.0520 C   0  0  0  0  0  0  0  0  0  0  0  0
    7.8023   -7.6783   18.2910 F   0  0  0  0  0  0  0  0  0  0  0  0
   10.1057   -4.7061   18.1668 C   0  0  0  0  0  0  0  0  0  0  0  0
   11.4414   -2.4164   21.3079 N   0  0  0  0  0  0  0  0  0  0  0  0
    9.5594   -7.3706   17.7840 F   0  0  0  0  0  0  0  0  0  0  0  0
    8.9381   -4.6458   16.3504 F   0  0  0  0  0  0  0  0  0  0  0  0
   11.0886   -3.1931   20.1567 C   0  0  0  0  0  0  0  0  0  0  0  0
    2.7314  -11.2048   18.6711 C   0  0  0  0  0  0  0  0  0  0  0  0
   10.8317   -4.4590   20.4179 C   0  0  0  0  0  0  0  0  0  0  0  0
    9.1812   -7.8577   18.1763 F   0  0  0  0  0  0  0  0  0  0  0  0
   10.9921   -4.9410   21.7208 C   0  0  0  0  0  0  0  0  0  0  0  0
   10.4724   -3.5647   17.8861 C   0  0  0  0  0  0  0  0  0  0  0  0
   10.3500   -5.3075   19.2501 C   0  0  0  0  0  0  0  0  0  0  0  0
    6.7800   -8.6889   15.6183 F   0  0  0  0  0  0  0  0  0  0  0  0
    5.3674   -8.3500   17.8675 C   0  0  0  0  0  0  0  0  0  0  0  0
  2  8  4  0
  2 23  4  0
  3 32  4  0
  5 27  4  0
  6 20  1  0
  8 30  4  0
 11 13  1  0
 18 27  1  0
 19 26  4  0
 19 31  4  0
 20 24  4  0
 22 31  4  0
 22 32  4  0
 23 26  4  0
 24 29  1  0
 26 28  4  0
 28 30  4  0
 28 32  4  0
M  END
$$$$

 Created by Python create_sdf_string function

 34 75  0  0  0  0  0  0  0  0999 V2000
   11.2399   -2.6460   22.6837 C   0  0  0  0  0  0  0  0  0  0  0  0
   10.4418   -6.9569   19.8087 F   0  0  0  0  0  0  0  0  0  0  0  0
    2.5478  -11.1849   18.0710 O   0  0  0  0  0  0  0  0  0  0  0  0
    7.2748   -7.1536   15.9760 F   0  0  0  0  0  0  0  0  0  0  0  0
    7.6713   -5.6395   13.7290 Cl  0  0  0  0  0  0  0  0  0  0  0  0
    6.7075   -9.1964   15.5224 S   0  0  0  0  0  0  0  0  0  0  0  0
    3.8517   -9.3369   18.8962 N   0  0  0  0  0  0  0  0  0  0  0  0
    3.4000  -11.3509   17.6924 Se  0  0  0  0  0  0  0  0  0  0  0  0
    2.7112  -11.3908   19.5534 O   0  0  0  0  0  0  0  0  0  0  0  0
   11.2606   -3.1041   19.6185 N   0  0  0  0  0  0  0  0  0  0  0  0
    8.3087   -6.8680   16.9094 C   0  0  0  0  0  0  0  0  0  0  0  0
    9.0762   -7.1758   17.9222 F   0  0  0  0  0  0  0  0  0  0  0  0
   10.2135   -4.1018   17.5963 C   0  0  0  0  0  0  0  0  0  0  0  0
   11.5980   -1.8268   21.8312 N   0  0  0  0  0  0  0  0  0  0  0  0
    9.8861   -6.4818   18.3878 C   0  0  0  0  0  0  0  0  0  0  0  0
    9.0592   -4.2940   16.9125 F   0  0  0  0  0  0  0  0  0  0  0  0
   11.7361   -3.0976   20.2746 C   0  0  0  0  0  0  0  0  0  0  0  0
    2.4445  -11.9883   18.3870 C   0  0  0  0  0  0  0  0  0  0  0  0
   10.6216   -4.8145   20.9547 C   0  0  0  0  0  0  0  0  0  0  0  0
    9.8334   -7.6157   18.2881 N   0  0  0  0  0  0  0  0  0  0  0  0
   11.1230   -5.4937   21.4084 C   0  0  0  0  0  0  0  0  0  0  0  0
    9.7399   -5.5709   18.7712 P   0  0  0  0  0  0  0  0  0  0  0  0
    6.4750   -7.8177   18.5071 C   0  0  0  0  0  0  0  0  0  0  0  0
    7.9902   -8.3144   14.9883 He  0  0  0  0  0  0  0  0  0  0  0  0
    5.9412   -8.4933   19.0204 He  0  0  0  0  0  0  0  0  0  0  0  0
   10.9472   -4.1613   16.1129 He  0  0  0  0  0  0  0  0  0  0  0  0
   11.3446   -4.5191   22.6848 He  0  0  0  0  0  0  0  0  0  0  0  0
    8.9594   -6.5137   17.0410 He  0  0  0  0  0  0  0  0  0  0  0  0
    6.9050   -8.4245   16.6693 He  0  0  0  0  0  0  0  0  0  0  0  0
    7.0192   -7.8748   15.8716 He  0  0  0  0  0  0  0  0  0  0  0  0
    4.5051  -11.3691   16.9428 He  0  0  0  0  0  0  0  0  0  0  0  0
    8.3646   -7.7321   17.2111 He  0  0  0  0  0  0  0  0  0  0  0  0
   10.4234   -3.8924   17.6675 He  0  0  0  0  0  0  0  0  0  0  0  0
    7.7213   -7.6833   14.1252 He  0  0  0  0  0  0  0  0  0  0  0  0
  1  6  3  0
  1 12  4  0
  1 14  4  0
  1 15  2  0
  1 21  4  0
  1 23  1  0
  2 22  4  0
  3  7  4  0
  3 11  2  0
  3 14  1  0
  3 15  2  0
  3 17  3  0
  3 19  2  0
  3 20  3  0
  3 23  4  0
  4  6  3  0
  4  7  1  0
  4  8  1  0
  4 14  1  0
  4 19  4  0
  4 20  2  0
  5  7  3  0
  5  9  2  0
  5 10  3  0
  5 12  4  0
  5 15  2  0
  5 21  3  0
  5 22  4  0
  6  7  4  0
  6  9  1  0
  6 11  1  0
  6 14  4  0
  6 23  4  0
  7  9  4  0
  7 10  4  0
  7 11  4  0
  7 14  4  0
  7 16  1  0
  7 17  1  0
  7 23  2  0
  8 11  1  0
  8 15  4  0
  8 17  3  0
  8 18  2  0
  8 20  1  0
  8 23  4  0
  9 18  1  0
  9 19  4  0
  9 21  4  0
 10 17  4  0
 10 22  1  0
 11 15  2  0
 11 20  2  0
 11 21  3  0
 11 23  4  0
 12 15  4  0
 12 22  2  0
 13 15  3  0
 13 16  1  0
 13 22  4  0
 14 15  3  0
 14 16  2  0
 14 17  4  0
 15 16  3  0
 15 19  3  0
 15 20  1  0
 16 17  1  0
 16 20  2  0
 16 21  3  0
 17 18  4  0
 17 19  4  0
 17 20  2  0
 19 20  2  0
 19 21  4  0
 19 22  3  0
M  END
$$$$

 Created by Python create_sdf_string function

 34 17  0  0  0  0  0  0  0  0999 V2000
    7.7840   -8.3221   15.3921 C   0  0  0  0  0  0  0  0  0  0  0  0
   11.4221   -2.9373   22.8700 C   0  0  0  0  0  0  0  0  0  0  0  0
   10.2043   -6.8883   19.6966 F   0  0  0  0  0  0  0  0  0  0  0  0
    5.6578   -8.9423   18.4211 C   0  0  0  0  0  0  0  0  0  0  0  0
    2.1972  -11.0439   18.2587 O   0  0  0  0  0  0  0  0  0  0  0  0
    7.2094   -6.8394   15.9805 F   0  0  0  0  0  0  0  0  0  0  0  0
   10.6229   -3.7500   16.0571 F   0  0  0  0  0  0  0  0  0  0  0  0
   11.1418   -4.2547   22.9940 C   0  0  0  0  0  0  0  0  0  0  0  0
    8.8646   -6.2077   17.1076 C   0  0  0  0  0  0  0  0  0  0  0  0
    6.2105   -8.7945   17.0251 C   0  0  0  0  0  0  0  0  0  0  0  0
    6.7614   -8.2113   16.0489 C   0  0  0  0  0  0  0  0  0  0  0  0
    7.4107   -5.9589   15.1278 F   0  0  0  0  0  0  0  0  0  0  0  0
    6.2085   -9.3301   15.9398 C   0  0  0  0  0  0  0  0  0  0  0  0
    4.1190  -10.2152   18.0712 C   0  0  0  0  0  0  0  0  0  0  0  0
    4.5442  -10.4346   17.3520 C   0  0  0  0  0  0  0  0  0  0  0  0
    3.4675  -11.0345   18.2287 C   0  0  0  0  0  0  0  0  0  0  0  0
    8.1630   -7.6653   17.1168 C   0  0  0  0  0  0  0  0  0  0  0  0
    2.7647  -11.5808   19.4859 O   0  0  0  0  0  0  0  0  0  0  0  0
   11.2037   -2.6641   19.2276 N   0  0  0  0  0  0  0  0  0  0  0  0
    8.3267   -6.8591   16.9945 C   0  0  0  0  0  0  0  0  0  0  0  0
    9.0290   -7.0784   18.0181 F   0  0  0  0  0  0  0  0  0  0  0  0
   10.3729   -4.3111   18.1387 C   0  0  0  0  0  0  0  0  0  0  0  0
   11.4880   -2.3680   21.5831 N   0  0  0  0  0  0  0  0  0  0  0  0
    9.6597   -6.4813   18.4097 C   0  0  0  0  0  0  0  0  0  0  0  0
    9.3940   -4.1743   16.5069 F   0  0  0  0  0  0  0  0  0  0  0  0
   11.1693   -3.2194   20.3950 C   0  0  0  0  0  0  0  0  0  0  0  0
    2.6086  -11.7065   18.6775 C   0  0  0  0  0  0  0  0  0  0  0  0
   10.8834   -4.4627   20.5863 C   0  0  0  0  0  0  0  0  0  0  0  0
    9.5852   -7.7848   18.2784 F   0  0  0  0  0  0  0  0  0  0  0  0
   10.9255   -5.0259   21.8562 C   0  0  0  0  0  0  0  0  0  0  0  0
   10.8330   -3.3454   18.0947 C   0  0  0  0  0  0  0  0  0  0  0  0
   10.4080   -5.1944   19.2818 C   0  0  0  0  0  0  0  0  0  0  0  0
    7.7799   -7.9346   15.0886 F   0  0  0  0  0  0  0  0  0  0  0  0
    6.1363   -8.3909   18.1077 C   0  0  0  0  0  0  0  0  0  0  0  0
  1 33  1  0
  2  8  4  0
  2 23  4  0
  4 34  4  0
  5 27  2  0
  8 30  4  0
 10 34  4  0
 14 15  4  0
 18 27  1  0
 19 26  4  0
 19 31  4  0
 22 31  4  0
 22 32  4  0
 23 26  4  0
 26 28  4  0
 28 30  4  0
 28 32  4  0
M  END
$$$$

 Created by Python create_sdf_string function

 34 68  0  0  0  0  0  0  0  0999 V2000
   11.1004   -2.5181   23.0370 C   0  0  0  0  0  0  0  0  0  0  0  0
   10.0149   -6.2669   19.2611 F   0  0  0  0  0  0  0  0  0  0  0  0
   11.6365   -4.8573   22.5135 C   0  0  0  0  0  0  0  0  0  0  0  0
    9.3053   -6.3481   17.3104 C   0  0  0  0  0  0  0  0  0  0  0  0
    7.7466   -7.8505   15.7568 C   0  0  0  0  0  0  0  0  0  0  0  0
    5.7955   -8.5893   13.8753 C   0  0  0  0  0  0  0  0  0  0  0  0
    5.0326  -11.5024   17.4210 C   0  0  0  0  0  0  0  0  0  0  0  0
    3.0671  -12.1813   20.0168 O   0  0  0  0  0  0  0  0  0  0  0  0
   11.1430   -3.5004   19.5146 C   0  0  0  0  0  0  0  0  0  0  0  0
    8.6985   -6.9554   16.3849 C   0  0  0  0  0  0  0  0  0  0  0  0
    8.8789   -6.2455   17.9084 O   0  0  0  0  0  0  0  0  0  0  0  0
   10.3364   -3.9531   17.9948 C   0  0  0  0  0  0  0  0  0  0  0  0
   11.4604   -2.8252   21.7383 S   0  0  0  0  0  0  0  0  0  0  0  0
    9.7129   -4.3773   16.9812 F   0  0  0  0  0  0  0  0  0  0  0  0
   11.0869   -3.1243   21.1025 C   0  0  0  0  0  0  0  0  0  0  0  0
    2.0749  -11.9853   19.4241 C   0  0  0  0  0  0  0  0  0  0  0  0
   11.2574   -4.1382   20.7795 S   0  0  0  0  0  0  0  0  0  0  0  0
   10.5339   -5.1587   22.4259 C   0  0  0  0  0  0  0  0  0  0  0  0
   10.4125   -3.4135   18.4111 F   0  0  0  0  0  0  0  0  0  0  0  0
   10.8698   -5.4484   19.0944 N   0  0  0  0  0  0  0  0  0  0  0  0
    9.3980  -10.0764   16.4483 He  0  0  0  0  0  0  0  0  0  0  0  0
    6.3515   -8.2633   18.3443 He  0  0  0  0  0  0  0  0  0  0  0  0
    2.4352  -10.3267   17.8759 He  0  0  0  0  0  0  0  0  0  0  0  0
    7.5906   -7.7118   15.2105 He  0  0  0  0  0  0  0  0  0  0  0  0
    9.6675   -3.8929   14.9179 He  0  0  0  0  0  0  0  0  0  0  0  0
    7.9610   -6.9367   15.5742 He  0  0  0  0  0  0  0  0  0  0  0  0
    6.7587   -6.5404   15.3918 He  0  0  0  0  0  0  0  0  0  0  0  0
    3.8050   -9.3580   17.8068 He  0  0  0  0  0  0  0  0  0  0  0  0
    4.3439  -10.9958   16.1366 He  0  0  0  0  0  0  0  0  0  0  0  0
    9.3698   -7.5340   17.2734 He  0  0  0  0  0  0  0  0  0  0  0  0
    9.6194   -8.6117   16.8256 He  0  0  0  0  0  0  0  0  0  0  0  0
    9.3369   -7.7935   19.2413 He  0  0  0  0  0  0  0  0  0  0  0  0
    8.7856   -6.7005   12.7014 He  0  0  0  0  0  0  0  0  0  0  0  0
    6.2172   -8.1838   17.6750 He  0  0  0  0  0  0  0  0  0  0  0  0
  1  3  4  0
  1  4  2  0
  1  6  1  0
  1  7  1  0
  1  9  4  0
  1 13  4  0
  2  3  4  0
  2  4  3  0
  2  6  4  0
  2 10  4  0
  2 13  3  0
  3  4  2  0
  3  7  4  0
  3  9  1  0
  3 11  4  0
  3 18  4  0
  4  7  3  0
  4 10  4  0
  4 11  2  0
  4 12  4  0
  4 13  3  0
  4 14  4  0
  4 16  1  0
  4 17  4  0
  4 18  2  0
  4 20  1  0
  5  6  2  0
  5  7  1  0
  5  8  1  0
  5 11  4  0
  5 17  4  0
  5 18  4  0
  5 19  1  0
  5 20  4  0
  6  7  4  0
  6 11  4  0
  6 12  3  0
  6 13  2  0
  6 15  3  0
  6 16  4  0
  6 19  2  0
  6 20  2  0
  7 12  3  0
  7 14  4  0
  7 15  1  0
  7 16  4  0
  7 20  2  0
  8 11  3  0
  8 20  3  0
  9 13  3  0
  9 15  4  0
  9 19  4  0
 11 13  2  0
 11 14  1  0
 11 19  2  0
 12 14  4  0
 12 18  4  0
 12 19  4  0
 12 20  4  0
 13 15  4  0
 14 19  1  0
 14 20  3  0
 15 17  4  0
 15 18  1  0
 16 19  1  0
 17 20  4  0
 18 19  4  0
 18 20  3  0
M  END
$$$$

 Created by Python create_sdf_string function

 34 18  0  0  0  0  0  0  0  0999 V2000
    8.6772   -8.8596   16.3972 F   0  0  0  0  0  0  0  0  0  0  0  0
   11.2700   -2.9231   23.1754 C   0  0  0  0  0  0  0  0  0  0  0  0
   10.0498   -6.4464   19.2434 F   0  0  0  0  0  0  0  0  0  0  0  0
    5.7212   -8.8457   17.7961 C   0  0  0  0  0  0  0  0  0  0  0  0
    2.5792  -10.8332   18.3176 C   0  0  0  0  0  0  0  0  0  0  0  0
    7.3046   -7.9392   15.2588 F   0  0  0  0  0  0  0  0  0  0  0  0
    9.3508   -3.9853   15.5386 F   0  0  0  0  0  0  0  0  0  0  0  0
   11.2531   -4.3361   23.3005 C   0  0  0  0  0  0  0  0  0  0  0  0
    9.2572   -5.9835   17.5017 C   0  0  0  0  0  0  0  0  0  0  0  0
    6.9661   -8.1693   16.1822 C   0  0  0  0  0  0  0  0  0  0  0  0
    7.9012   -6.8058   15.8092 C   0  0  0  0  0  0  0  0  0  0  0  0
    6.5081   -6.4128   15.6361 F   0  0  0  0  0  0  0  0  0  0  0  0
    5.6929   -8.9011   15.4629 C   0  0  0  0  0  0  0  0  0  0  0  0
    4.0463   -9.8291   17.6351 C   0  0  0  0  0  0  0  0  0  0  0  0
    4.3757  -10.5020   18.0606 C   0  0  0  0  0  0  0  0  0  0  0  0
    4.3368  -10.0178   17.1258 C   0  0  0  0  0  0  0  0  0  0  0  0
    9.0505   -7.2981   17.6881 C   0  0  0  0  0  0  0  0  0  0  0  0
    2.9599  -11.6801   19.2034 O   0  0  0  0  0  0  0  0  0  0  0  0
   11.0957   -2.7806   19.4547 C   0  0  0  0  0  0  0  0  0  0  0  0
    8.6131   -6.6284   16.4933 C   0  0  0  0  0  0  0  0  0  0  0  0
    8.8126   -6.2665   17.9380 F   0  0  0  0  0  0  0  0  0  0  0  0
   10.3414   -4.1861   18.1771 C   0  0  0  0  0  0  0  0  0  0  0  0
   11.3196   -2.4016   21.9883 N   0  0  0  0  0  0  0  0  0  0  0  0
    8.8551   -8.1931   17.1037 C   0  0  0  0  0  0  0  0  0  0  0  0
    9.8255   -4.2618   16.9570 F   0  0  0  0  0  0  0  0  0  0  0  0
   11.1887   -3.2002   20.8087 C   0  0  0  0  0  0  0  0  0  0  0  0
    2.5654  -11.5533   18.8705 C   0  0  0  0  0  0  0  0  0  0  0  0
   11.0288   -4.4755   20.8312 C   0  0  0  0  0  0  0  0  0  0  0  0
    9.4169   -7.8261   18.7646 F   0  0  0  0  0  0  0  0  0  0  0  0
   11.2091   -5.0519   22.2732 C   0  0  0  0  0  0  0  0  0  0  0  0
   10.8944   -3.1186   18.5423 C   0  0  0  0  0  0  0  0  0  0  0  0
   10.5280   -5.1347   19.5759 N   0  0  0  0  0  0  0  0  0  0  0  0
    8.4297   -7.2503   14.4275 F   0  0  0  0  0  0  0  0  0  0  0  0
    5.5867   -8.7701   17.4097 C   0  0  0  0  0  0  0  0  0  0  0  0
  2  8  4  0
  2 23  4  0
  4 34  4  0
  5 27  4  0
  6 11  1  0
  8 30  4  0
 11 20  1  0
 17 29  1  0
 18 27  4  0
 19 26  4  0
 19 31  4  0
 22 25  4  0
 22 31  4  0
 22 32  4  0
 23 26  4  0
 26 28  4  0
 28 30  4  0
 28 32  4  0
M  END
$$$$

 Created by Python create_sdf_string function

 34113  0  0  0  0  0  0  0  0999 V2000
   10.7606   -3.1504   22.9077 Cl  0  0  0  0  0  0  0  0  0  0  0  0
    9.6537   -6.1020   18.9445 F   0  0  0  0  0  0  0  0  0  0  0  0
    2.5252  -10.6386   18.4139 Cl  0  0  0  0  0  0  0  0  0  0  0  0
    7.3405   -7.6046   15.5711 F   0  0  0  0  0  0  0  0  0  0  0  0
    9.5396   -4.5626   16.2851 F   0  0  0  0  0  0  0  0  0  0  0  0
   10.7915   -4.3835   23.1266 C   0  0  0  0  0  0  0  0  0  0  0  0
   10.1265   -5.8478   17.1790 Se  0  0  0  0  0  0  0  0  0  0  0  0
    7.9601   -7.5797   18.3454 P   0  0  0  0  0  0  0  0  0  0  0  0
    7.3556   -6.8750   16.9137 P   0  0  0  0  0  0  0  0  0  0  0  0
    5.5747   -9.5505   15.0820 C   0  0  0  0  0  0  0  0  0  0  0  0
    4.1302  -10.7343   16.4178 Cl  0  0  0  0  0  0  0  0  0  0  0  0
    8.1289   -7.7344   18.1975 C   0  0  0  0  0  0  0  0  0  0  0  0
   11.1245   -2.4560   19.4713 C   0  0  0  0  0  0  0  0  0  0  0  0
    8.9477   -6.5808   16.4124 C   0  0  0  0  0  0  0  0  0  0  0  0
    9.5171   -7.0197   17.3429 N   0  0  0  0  0  0  0  0  0  0  0  0
   10.7076   -3.9577   17.9826 C   0  0  0  0  0  0  0  0  0  0  0  0
   11.2869   -2.6420   22.5460 N   0  0  0  0  0  0  0  0  0  0  0  0
    9.7116   -4.1249   17.6389 F   0  0  0  0  0  0  0  0  0  0  0  0
   11.4068   -3.0058   20.4238 C   0  0  0  0  0  0  0  0  0  0  0  0
    2.7480  -12.2667   18.8934 C   0  0  0  0  0  0  0  0  0  0  0  0
   10.7355   -4.7044   20.5832 F   0  0  0  0  0  0  0  0  0  0  0  0
    9.0787   -7.6096   18.0806 F   0  0  0  0  0  0  0  0  0  0  0  0
   10.7375   -5.3441   22.5939 C   0  0  0  0  0  0  0  0  0  0  0  0
   10.9308   -2.8426   18.7036 C   0  0  0  0  0  0  0  0  0  0  0  0
   10.4938   -5.0663   19.6101 N   0  0  0  0  0  0  0  0  0  0  0  0
    7.4373   -9.0936   17.0969 N   0  0  0  0  0  0  0  0  0  0  0  0
    8.9817  -10.2319   17.3500 He  0  0  0  0  0  0  0  0  0  0  0  0
    5.9998   -8.7363   17.6097 He  0  0  0  0  0  0  0  0  0  0  0  0
    5.7342   -7.9385   15.3687 He  0  0  0  0  0  0  0  0  0  0  0  0
    5.7699  -10.7701   16.4428 He  0  0  0  0  0  0  0  0  0  0  0  0
    4.2444  -10.0489   16.6967 He  0  0  0  0  0  0  0  0  0  0  0  0
    2.5419  -11.4645   19.1013 He  0  0  0  0  0  0  0  0  0  0  0  0
    6.7401   -7.9052   16.5719 He  0  0  0  0  0  0  0  0  0  0  0  0
    8.5241  -10.6153   15.4873 He  0  0  0  0  0  0  0  0  0  0  0  0
  1  3  1  0
  1  5  2  0
  1  6  4  0
  1  7  1  0
  1  9  1  0
  1 16  1  0
  1 17  4  0
  2  7  2  0
  2 10  4  0
  2 11  3  0
  2 12  4  0
  2 19  3  0
  2 20  3  0
  3  7  2  0
  3 20  1  0
  4  7  1  0
  4 12  2  0
  4 26  2  0
  5  7  2  0
  5  8  2  0
  5 13  3  0
  5 14  1  0
  5 15  4  0
  5 17  2  0
  5 18  2  0
  5 21  3  0
  5 23  4  0
  5 24  2  0
  5 26  1  0
  6  8  4  0
  6  9  4  0
  6 12  4  0
  6 22  2  0
  6 23  4  0
  6 26  1  0
  7 11  3  0
  7 12  4  0
  7 13  4  0
  7 14  4  0
  7 17  1  0
  7 18  4  0
  7 19  2  0
  7 20  2  0
  7 22  3  0
  7 23  1  0
  7 25  4  0
  7 26  2  0
  8  9  1  0
  8 11  3  0
  8 12  1  0
  8 15  1  0
  8 16  3  0
  8 17  3  0
  8 18  2  0
  8 19  1  0
  8 22  2  0
  8 23  1  0
  8 26  4  0
  9 11  2  0
  9 14  1  0
  9 15  3  0
  9 16  2  0
  9 17  1  0
  9 18  3  0
  9 20  1  0
  9 21  4  0
  9 23  4  0
  9 25  1  0
 10 13  4  0
 10 19  1  0
 10 21  1  0
 10 22  4  0
 10 24  2  0
 10 26  3  0
 11 14  1  0
 11 18  3  0
 11 23  4  0
 12 13  1  0
 12 14  3  0
 12 19  2  0
 12 21  1  0
 12 23  4  0
 12 25  4  0
 13 16  1  0
 13 22  1  0
 13 25  4  0
 13 26  3  0
 14 15  3  0
 14 17  4  0
 14 18  1  0
 15 17  3  0
 15 20  3  0
 15 22  2  0
 16 18  4  0
 16 23  1  0
 16 24  4  0
 16 25  4  0
 17 19  4  0
 17 20  1  0
 17 22  4  0
 17 24  2  0
 17 26  1  0
 18 20  1  0
 18 24  1  0
 19 21  4  0
 19 23  3  0
 20 21  2  0
 21 25  4  0
 22 23  2  0
 22 24  1  0
 23 24  3  0
 23 26  4  0
 24 26  4  0
M  END
$$$$

 Created by Python create_sdf_string function

 34 17  0  0  0  0  0  0  0  0999 V2000
    8.3987   -8.9765   17.2168 F   0  0  0  0  0  0  0  0  0  0  0  0
   10.9832   -3.0840   23.2220 C   0  0  0  0  0  0  0  0  0  0  0  0
    9.7625   -6.4123   19.0254 F   0  0  0  0  0  0  0  0  0  0  0  0
    5.2382   -9.3824   17.5862 C   0  0  0  0  0  0  0  0  0  0  0  0
    2.5765  -10.7031   18.2707 C   0  0  0  0  0  0  0  0  0  0  0  0
    7.3681   -7.2915   15.3953 F   0  0  0  0  0  0  0  0  0  0  0  0
    9.4431   -4.5075   16.0225 F   0  0  0  0  0  0  0  0  0  0  0  0
   10.8615   -4.3906   23.2890 C   0  0  0  0  0  0  0  0  0  0  0  0
    9.6950   -5.5442   17.4047 C   0  0  0  0  0  0  0  0  0  0  0  0
    5.6541   -8.1432   15.7946 F   0  0  0  0  0  0  0  0  0  0  0  0
    7.8481   -7.4498   17.9716 F   0  0  0  0  0  0  0  0  0  0  0  0
    7.5480   -6.8010   16.7157 C   0  0  0  0  0  0  0  0  0  0  0  0
    5.4172   -9.3268   15.9726 C   0  0  0  0  0  0  0  0  0  0  0  0
    5.0969  -10.1895   17.2109 C   0  0  0  0  0  0  0  0  0  0  0  0
    3.5456   -9.7794   17.3338 C   0  0  0  0  0  0  0  0  0  0  0  0
    3.9099  -10.0793   17.3206 C   0  0  0  0  0  0  0  0  0  0  0  0
    8.0902   -7.5397   18.0039 C   0  0  0  0  0  0  0  0  0  0  0  0
    2.8022  -11.5062   18.9279 C   0  0  0  0  0  0  0  0  0  0  0  0
   11.2647   -2.4693   19.6039 C   0  0  0  0  0  0  0  0  0  0  0  0
    8.8714   -6.2340   16.3350 C   0  0  0  0  0  0  0  0  0  0  0  0
    9.1245   -6.6641   17.5087 C   0  0  0  0  0  0  0  0  0  0  0  0
   10.5906   -4.0768   18.3540 C   0  0  0  0  0  0  0  0  0  0  0  0
   11.1707   -2.4392   22.0677 N   0  0  0  0  0  0  0  0  0  0  0  0
    6.7487   -7.7691   16.5414 C   0  0  0  0  0  0  0  0  0  0  0  0
   10.0890   -4.2528   16.9287 F   0  0  0  0  0  0  0  0  0  0  0  0
   11.1437   -3.1104   20.8195 C   0  0  0  0  0  0  0  0  0  0  0  0
    3.0420  -11.4307   18.7382 C   0  0  0  0  0  0  0  0  0  0  0  0
   10.8827   -4.4359   20.8175 C   0  0  0  0  0  0  0  0  0  0  0  0
    9.1776   -7.7298   18.2300 F   0  0  0  0  0  0  0  0  0  0  0  0
   10.8438   -5.1093   22.0842 C   0  0  0  0  0  0  0  0  0  0  0  0
   11.0932   -2.8274   18.5299 C   0  0  0  0  0  0  0  0  0  0  0  0
   10.5793   -4.9212   19.5213 N   0  0  0  0  0  0  0  0  0  0  0  0
    7.5078   -9.2688   15.4140 F   0  0  0  0  0  0  0  0  0  0  0  0
    6.9003   -8.8116   16.8732 C   0  0  0  0  0  0  0  0  0  0  0  0
  2  8  4  0
  2 23  4  0
  4 14  4  0
  5 15  4  0
  8 30  4  0
 11 17  1  0
 12 20  1  0
 12 24  1  0
 18 27  4  0
 19 26  4  0
 19 31  4  0
 22 31  4  0
 22 32  4  0
 23 26  4  0
 26 28  4  0
 28 30  4  0
 28 32  4  0
M  END
$$$$

 Created by Python create_sdf_string function

 34 87  0  0  0  0  0  0  0  0999 V2000
   10.2169   -6.4328   19.0434 F   0  0  0  0  0  0  0  0  0  0  0  0
    2.4657  -10.5077   18.1120 C   0  0  0  0  0  0  0  0  0  0  0  0
   10.9365   -4.6035   23.4085 F   0  0  0  0  0  0  0  0  0  0  0  0
   10.6152   -5.0679   18.2329 N   0  0  0  0  0  0  0  0  0  0  0  0
    4.5123   -6.7343   16.0938 C   0  0  0  0  0  0  0  0  0  0  0  0
   10.3279   -6.3787   16.0096 O   0  0  0  0  0  0  0  0  0  0  0  0
    5.2771   -9.9922   15.8531 C   0  0  0  0  0  0  0  0  0  0  0  0
    8.7098   -7.8421   18.7221 O   0  0  0  0  0  0  0  0  0  0  0  0
    3.2919  -11.0803   18.8347 C   0  0  0  0  0  0  0  0  0  0  0  0
   10.9274   -2.2326   19.6930 C   0  0  0  0  0  0  0  0  0  0  0  0
    8.7845   -5.4441   16.6802 C   0  0  0  0  0  0  0  0  0  0  0  0
   11.1065   -4.1627   18.4314 C   0  0  0  0  0  0  0  0  0  0  0  0
   11.0894   -2.0691   22.1556 N   0  0  0  0  0  0  0  0  0  0  0  0
    7.0942   -7.0791   16.7130 C   0  0  0  0  0  0  0  0  0  0  0  0
    9.8597   -3.7427   16.2355 F   0  0  0  0  0  0  0  0  0  0  0  0
   11.6548   -3.2931   20.7390 Cl  0  0  0  0  0  0  0  0  0  0  0  0
   11.1201   -4.9385   19.7912 C   0  0  0  0  0  0  0  0  0  0  0  0
    9.2333   -7.5147   18.3748 F   0  0  0  0  0  0  0  0  0  0  0  0
   10.5380   -4.7984   21.5155 P   0  0  0  0  0  0  0  0  0  0  0  0
   11.4072   -2.7176   18.6544 C   0  0  0  0  0  0  0  0  0  0  0  0
   10.6467   -4.8331   19.7956 N   0  0  0  0  0  0  0  0  0  0  0  0
    6.4936   -9.2963   15.2290 O   0  0  0  0  0  0  0  0  0  0  0  0
    6.0113   -8.1062   17.9457 C   0  0  0  0  0  0  0  0  0  0  0  0
    9.7698  -10.0521   17.9380 He  0  0  0  0  0  0  0  0  0  0  0  0
   11.3460   -2.5843   22.5335 He  0  0  0  0  0  0  0  0  0  0  0  0
    4.5012   -9.2817   17.1424 He  0  0  0  0  0  0  0  0  0  0  0  0
    7.2924   -7.0782   14.6193 He  0  0  0  0  0  0  0  0  0  0  0  0
    7.8965   -4.2004   16.9663 He  0  0  0  0  0  0  0  0  0  0  0  0
    7.3004   -7.8305   17.0704 He  0  0  0  0  0  0  0  0  0  0  0  0
    6.1279   -9.6880   17.8045 He  0  0  0  0  0  0  0  0  0  0  0  0
    2.7479  -10.1439   15.8055 He  0  0  0  0  0  0  0  0  0  0  0  0
    4.1992   -9.3442   17.4098 He  0  0  0  0  0  0  0  0  0  0  0  0
    9.2448   -7.5730   19.6236 He  0  0  0  0  0  0  0  0  0  0  0  0
    2.6481  -11.5659   18.6156 He  0  0  0  0  0  0  0  0  0  0  0  0
  1  5  1  0
  1  6  3  0
  1 13  2  0
  1 16  4  0
  1 18  3  0
  1 22  4  0
  2  4  4  0
  2  6  1  0
  2  9  1  0
  2 14  1  0
  2 15  2  0
  2 16  1  0
  2 18  1  0
  2 23  2  0
  3  4  3  0
  3  5  2  0
  3  9  2  0
  3 15  2  0
  3 19  4  0
  3 23  2  0
  4  5  4  0
  4  8  4  0
  4  9  1  0
  4 11  4  0
  4 12  1  0
  4 14  2  0
  4 19  4  0
  4 20  1  0
  4 21  3  0
  5  6  2  0
  5 13  4  0
  5 20  3  0
  5 21  1  0
  5 23  1  0
  6 10  4  0
  6 11  4  0
  6 12  2  0
  6 16  4  0
  6 18  3  0
  7  8  1  0
  7  9  1  0
  7 10  4  0
  7 14  3  0
  7 16  2  0
  7 17  4  0
  7 21  1  0
  7 22  4  0
  7 23  2  0
  8  9  1  0
  8 10  1  0
  8 11  3  0
  8 12  4  0
  8 16  2  0
  8 17  2  0
  8 18  4  0
  8 20  4  0
  8 23  1  0
  9 21  4  0
 10 11  4  0
 10 15  3  0
 10 16  4  0
 10 19  3  0
 10 20  4  0
 10 23  2  0
 11 20  4  0
 11 23  1  0
 12 13  3  0
 12 14  1  0
 12 20  4  0
 12 21  4  0
 12 22  2  0
 14 15  3  0
 14 16  2  0
 14 17  2  0
 14 21  3  0
 14 22  2  0
 15 23  2  0
 16 17  4  0
 16 20  1  0
 17 19  4  0
 17 21  1  0
 17 22  1  0
 17 23  4  0
 18 23  3  0
 20 22  2  0
 21 23  2  0
 22 23  2  0
M  END
$$$$

 Created by Python create_sdf_string function

 34 16  0  0  0  0  0  0  0  0999 V2000
    8.9175   -8.8119   17.6139 F   0  0  0  0  0  0  0  0  0  0  0  0
   10.9854   -2.8944   23.1278 C   0  0  0  0  0  0  0  0  0  0  0  0
   10.0689   -6.5967   18.9801 F   0  0  0  0  0  0  0  0  0  0  0  0
    3.9800   -9.3635   17.2933 C   0  0  0  0  0  0  0  0  0  0  0  0
    2.4949  -10.5234   18.0104 C   0  0  0  0  0  0  0  0  0  0  0  0
    7.3011   -7.3828   15.3789 F   0  0  0  0  0  0  0  0  0  0  0  0
    8.7393   -4.7304   16.1429 C   0  0  0  0  0  0  0  0  0  0  0  0
   10.9591   -4.3238   23.1141 C   0  0  0  0  0  0  0  0  0  0  0  0
   10.4046   -4.9425   17.7442 C   0  0  0  0  0  0  0  0  0  0  0  0
    4.8844   -7.7266   16.2795 C   0  0  0  0  0  0  0  0  0  0  0  0
    7.3759   -7.5483   16.6591 C   0  0  0  0  0  0  0  0  0  0  0  0
    9.3752   -6.0548   16.6522 C   0  0  0  0  0  0  0  0  0  0  0  0
    5.1084   -9.4480   16.1953 C   0  0  0  0  0  0  0  0  0  0  0  0
    5.6426   -9.2761   17.4348 C   0  0  0  0  0  0  0  0  0  0  0  0
    2.5710   -9.6157   16.7764 C   0  0  0  0  0  0  0  0  0  0  0  0
    3.9074   -9.4722   17.3270 C   0  0  0  0  0  0  0  0  0  0  0  0
    8.4401   -7.7633   18.1102 C   0  0  0  0  0  0  0  0  0  0  0  0
    3.3109  -11.0117   18.5440 C   0  0  0  0  0  0  0  0  0  0  0  0
   11.3515   -2.2396   19.8665 C   0  0  0  0  0  0  0  0  0  0  0  0
    8.8939   -5.7069   16.6566 C   0  0  0  0  0  0  0  0  0  0  0  0
    9.3182   -7.5613   18.8548 F   0  0  0  0  0  0  0  0  0  0  0  0
   10.8721   -4.0274   18.3690 C   0  0  0  0  0  0  0  0  0  0  0  0
   11.2706   -2.3457   22.1766 N   0  0  0  0  0  0  0  0  0  0  0  0
    7.1579   -7.3434   16.5581 C   0  0  0  0  0  0  0  0  0  0  0  0
    9.9423   -3.8086   16.1994 F   0  0  0  0  0  0  0  0  0  0  0  0
   11.2395   -3.0093   20.9267 C   0  0  0  0  0  0  0  0  0  0  0  0
    2.6392  -11.2872   18.7743 C   0  0  0  0  0  0  0  0  0  0  0  0
   10.9918   -4.3441   20.6332 C   0  0  0  0  0  0  0  0  0  0  0  0
    9.1779   -7.5442   18.2928 F   0  0  0  0  0  0  0  0  0  0  0  0
   10.9421   -4.9477   21.8972 C   0  0  0  0  0  0  0  0  0  0  0  0
   11.2517   -2.6759   18.5495 C   0  0  0  0  0  0  0  0  0  0  0  0
   10.8516   -4.7888   19.4052 C   0  0  0  0  0  0  0  0  0  0  0  0
    6.3991   -9.1738   15.5828 C   0  0  0  0  0  0  0  0  0  0  0  0
    6.0041   -8.2139   17.6298 C   0  0  0  0  0  0  0  0  0  0  0  0
  2  8  4  0
  2 23  4  0
  6 11  1  0
  8 30  4  0
  9 22  1  0
 11 24  1  0
 12 20  4  0
 18 27  4  0
 19 26  4  0
 19 31  4  0
 22 31  4  0
 22 32  4  0
 23 26  4  0
 26 28  4  0
 28 30  4  0
 28 32  4  0
M  END
$$$$

 Created by Python create_sdf_string function

 34 99  0  0  0  0  0  0  0  0999 V2000
    9.2507  -11.1874   17.3074 C   0  0  0  0  0  0  0  0  0  0  0  0
    9.2764   -6.2857   18.8089 P   0  0  0  0  0  0  0  0  0  0  0  0
    2.2385  -10.4144   18.1540 C   0  0  0  0  0  0  0  0  0  0  0  0
    8.0708   -6.8504   15.4259 F   0  0  0  0  0  0  0  0  0  0  0  0
    7.8889   -5.9226   17.2980 F   0  0  0  0  0  0  0  0  0  0  0  0
   10.9406   -4.4075   23.2172 P   0  0  0  0  0  0  0  0  0  0  0  0
    8.5759   -5.2608   18.0648 N   0  0  0  0  0  0  0  0  0  0  0  0
    4.8444   -9.6925   16.0079 O   0  0  0  0  0  0  0  0  0  0  0  0
    2.3786   -9.2562   16.4877 Cl  0  0  0  0  0  0  0  0  0  0  0  0
    5.5963   -9.0832   18.6457 C   0  0  0  0  0  0  0  0  0  0  0  0
   10.7907   -2.2727   19.8082 C   0  0  0  0  0  0  0  0  0  0  0  0
    8.6306   -5.3385   16.1702 C   0  0  0  0  0  0  0  0  0  0  0  0
    9.2801   -7.5290   18.5173 F   0  0  0  0  0  0  0  0  0  0  0  0
   10.2222   -4.2911   18.3138 C   0  0  0  0  0  0  0  0  0  0  0  0
   11.5990   -1.7420   23.0313 N   0  0  0  0  0  0  0  0  0  0  0  0
    5.3523   -4.7473   15.1779 C   0  0  0  0  0  0  0  0  0  0  0  0
   10.2367   -4.1701   16.4187 F   0  0  0  0  0  0  0  0  0  0  0  0
   11.2332   -2.6122   20.1474 C   0  0  0  0  0  0  0  0  0  0  0  0
    2.5671  -10.6225   19.0492 C   0  0  0  0  0  0  0  0  0  0  0  0
   10.6262   -3.6931   21.0033 C   0  0  0  0  0  0  0  0  0  0  0  0
   11.0089   -4.4889   22.2380 C   0  0  0  0  0  0  0  0  0  0  0  0
   10.8043   -4.3962   19.6209 C   0  0  0  0  0  0  0  0  0  0  0  0
    6.9732   -9.3405   15.1616 N   0  0  0  0  0  0  0  0  0  0  0  0
    6.4809   -7.9769   16.8030 C   0  0  0  0  0  0  0  0  0  0  0  0
   10.9969   -3.2770   23.5240 He  0  0  0  0  0  0  0  0  0  0  0  0
    3.7491   -8.9245   17.0892 He  0  0  0  0  0  0  0  0  0  0  0  0
   12.9867   -4.3177   17.2269 He  0  0  0  0  0  0  0  0  0  0  0  0
    5.6082   -7.5746   16.0817 He  0  0  0  0  0  0  0  0  0  0  0  0
    5.9452   -6.7504   18.1481 He  0  0  0  0  0  0  0  0  0  0  0  0
    3.7805   -9.8942   15.1471 He  0  0  0  0  0  0  0  0  0  0  0  0
    7.2587   -7.4323   16.9732 He  0  0  0  0  0  0  0  0  0  0  0  0
    3.0093  -11.6650   18.7192 He  0  0  0  0  0  0  0  0  0  0  0  0
    9.1053   -7.3987   17.4420 He  0  0  0  0  0  0  0  0  0  0  0  0
   11.5418   -2.9421   19.0347 He  0  0  0  0  0  0  0  0  0  0  0  0
  1  5  2  0
  1  8  3  0
  1 14  2  0
  1 16  3  0
  1 17  3  0
  1 18  3  0
  1 21  3  0
  1 22  2  0
  1 23  2  0
  2  4  2  0
  2  5  2  0
  2  6  4  0
  2  9  1  0
  2 10  3  0
  2 13  4  0
  2 14  2  0
  2 16  1  0
  2 18  3  0
  2 23  2  0
  2 24  3  0
  3  4  2  0
  3  5  2  0
  3  7  2  0
  3  9  3  0
  3 21  3  0
  3 23  4  0
  4 13  2  0
  4 15  3  0
  4 22  1  0
  4 24  3  0
  5  6  1  0
  5  7  3  0
  5  8  4  0
  5  9  2  0
  5 10  2  0
  5 11  1  0
  5 15  2  0
  5 18  3  0
  6 11  2  0
  6 13  1  0
  6 21  4  0
  7  8  2  0
  7 12  4  0
  7 13  2  0
  7 14  2  0
  7 20  2  0
  7 22  2  0
  8  9  2  0
  8 10  3  0
  8 14  3  0
  8 15  3  0
  8 16  2  0
  8 19  4  0
  8 21  4  0
  8 22  1  0
  9 10  1  0
  9 12  4  0
  9 14  2  0
  9 17  2  0
  9 18  3  0
  9 20  3  0
  9 22  2  0
 10 11  1  0
 10 12  1  0
 10 13  1  0
 10 17  3  0
 10 19  2  0
 10 20  4  0
 10 22  4  0
 10 23  3  0
 11 14  2  0
 11 16  3  0
 11 18  4  0
 11 22  2  0
 11 23  2  0
 12 13  1  0
 12 16  1  0
 12 17  3  0
 13 18  2  0
 13 19  3  0
 13 23  2  0
 14 15  2  0
 14 18  2  0
 14 22  2  0
 15 16  2  0
 15 18  4  0
 15 19  4  0
 15 22  3  0
 15 24  4  0
 16 17  3  0
 16 19  2  0
 16 21  2  0
 17 22  4  0
 18 20  4  0
 19 24  1  0
 20 21  4  0
 20 24  2  0
 21 23  1  0
 22 23  1  0
M  END
$$$$

 Created by Python create_sdf_string function

 34 19  0  0  0  0  0  0  0  0999 V2000
    8.4658   -9.1139   16.9566 F   0  0  0  0  0  0  0  0  0  0  0  0
   11.0619   -2.9999   23.7710 C   0  0  0  0  0  0  0  0  0  0  0  0
    9.5436   -6.3061   18.7223 C   0  0  0  0  0  0  0  0  0  0  0  0
    3.6280   -9.4151   17.0955 C   0  0  0  0  0  0  0  0  0  0  0  0
    2.0901  -10.4633   17.8164 C   0  0  0  0  0  0  0  0  0  0  0  0
    8.1543   -7.3582   15.2515 F   0  0  0  0  0  0  0  0  0  0  0  0
    8.0413   -6.6180   17.1551 C   0  0  0  0  0  0  0  0  0  0  0  0
   10.8387   -4.1960   23.4511 C   0  0  0  0  0  0  0  0  0  0  0  0
   11.3998   -3.6000   17.0777 C   0  0  0  0  0  0  0  0  0  0  0  0
    5.5032   -8.1047   16.3941 C   0  0  0  0  0  0  0  0  0  0  0  0
    6.1775   -7.3609   18.0873 F   0  0  0  0  0  0  0  0  0  0  0  0
    9.2939   -5.5292   17.7388 C   0  0  0  0  0  0  0  0  0  0  0  0
    3.6839   -9.1561   16.0458 C   0  0  0  0  0  0  0  0  0  0  0  0
    4.6106   -9.1841   16.4908 C   0  0  0  0  0  0  0  0  0  0  0  0
    2.5013   -9.5839   16.8061 C   0  0  0  0  0  0  0  0  0  0  0  0
    5.1883   -9.3464   18.0552 C   0  0  0  0  0  0  0  0  0  0  0  0
    7.2203   -7.5145   16.5079 C   0  0  0  0  0  0  0  0  0  0  0  0
    2.9571  -11.1544   18.7128 C   0  0  0  0  0  0  0  0  0  0  0  0
   11.1958   -2.8411   20.2786 C   0  0  0  0  0  0  0  0  0  0  0  0
    8.9217   -5.0360   16.4215 C   0  0  0  0  0  0  0  0  0  0  0  0
    9.2097   -7.4782   18.3306 F   0  0  0  0  0  0  0  0  0  0  0  0
   10.3391   -4.4439   18.4728 C   0  0  0  0  0  0  0  0  0  0  0  0
   11.3596   -2.1236   22.8321 N   0  0  0  0  0  0  0  0  0  0  0  0
    6.1888   -6.2200   15.5114 F   0  0  0  0  0  0  0  0  0  0  0  0
   10.1249   -3.9402   16.2904 C   0  0  0  0  0  0  0  0  0  0  0  0
   11.3044   -2.6436   21.2543 C   0  0  0  0  0  0  0  0  0  0  0  0
    2.9252  -10.9101   18.4912 C   0  0  0  0  0  0  0  0  0  0  0  0
   10.9291   -3.9223   21.1105 C   0  0  0  0  0  0  0  0  0  0  0  0
    8.7457   -7.6266   17.5133 C   0  0  0  0  0  0  0  0  0  0  0  0
   10.7931   -4.6496   22.1680 C   0  0  0  0  0  0  0  0  0  0  0  0
   11.3487   -3.2670   18.5796 N   0  0  0  0  0  0  0  0  0  0  0  0
   10.6784   -4.3879   19.7230 C   0  0  0  0  0  0  0  0  0  0  0  0
    7.0765   -9.0501   15.4649 F   0  0  0  0  0  0  0  0  0  0  0  0
    6.1524   -8.2006   16.7743 C   0  0  0  0  0  0  0  0  0  0  0  0
  2  8  4  0
  2 23  4  0
  3 12  4  0
  3 21  4  0
  7 17  1  0
  8 30  4  0
  9 25  4  0
  9 31  4  0
 12 20  4  0
 18 27  4  0
 19 26  4  0
 20 25  4  0
 21 29  1  0
 22 31  4  0
 22 32  4  0
 23 26  4  0
 26 28  4  0
 28 30  4  0
 28 32  1  0
M  END
$$$$

 Created by Python create_sdf_string function

 34100  0  0  0  0  0  0  0  0999 V2000
   10.8291   -3.4041   24.3851 C   0  0  0  0  0  0  0  0  0  0  0  0
    9.2235   -6.2201   18.8695 C   0  0  0  0  0  0  0  0  0  0  0  0
    4.4935  -11.0030   18.2592 F   0  0  0  0  0  0  0  0  0  0  0  0
    8.2775   -7.5081   15.9008 B   0  0  0  0  0  0  0  0  0  0  0  0
    4.9580   -8.3912   14.8473 S   0  0  0  0  0  0  0  0  0  0  0  0
    6.5618   -6.8643   17.8345 Cl  0  0  0  0  0  0  0  0  0  0  0  0
    9.4320   -5.2008   17.3173 N   0  0  0  0  0  0  0  0  0  0  0  0
    3.5599   -8.5291   16.1795 C   0  0  0  0  0  0  0  0  0  0  0  0
    5.2343   -9.9408   14.2594 O   0  0  0  0  0  0  0  0  0  0  0  0
    4.4467   -9.4863   17.0538 Cl  0  0  0  0  0  0  0  0  0  0  0  0
    8.4902   -7.3518   17.1148 F   0  0  0  0  0  0  0  0  0  0  0  0
    2.5338  -10.8642   18.4235 C   0  0  0  0  0  0  0  0  0  0  0  0
   11.3770   -2.8084   20.4988 C   0  0  0  0  0  0  0  0  0  0  0  0
    8.7587   -4.8646   16.1302 C   0  0  0  0  0  0  0  0  0  0  0  0
    9.8524   -7.3466   18.8069 F   0  0  0  0  0  0  0  0  0  0  0  0
   10.2884   -3.9272   18.6001 C   0  0  0  0  0  0  0  0  0  0  0  0
   11.7683   -1.6714   21.9292 N   0  0  0  0  0  0  0  0  0  0  0  0
    8.3717   -6.6177   15.2843 F   0  0  0  0  0  0  0  0  0  0  0  0
   10.0474   -3.9916   16.3462 C   0  0  0  0  0  0  0  0  0  0  0  0
   10.8503   -2.0807   21.0307 B   0  0  0  0  0  0  0  0  0  0  0  0
   10.5651   -4.5732   21.6007 Cl  0  0  0  0  0  0  0  0  0  0  0  0
    8.9590   -7.4821   17.5117 C   0  0  0  0  0  0  0  0  0  0  0  0
   11.4025   -3.4497   18.7534 O   0  0  0  0  0  0  0  0  0  0  0  0
    7.1962  -10.5602   14.3143 S   0  0  0  0  0  0  0  0  0  0  0  0
    7.9249   -9.8905   16.6891 He  0  0  0  0  0  0  0  0  0  0  0  0
    2.5297  -10.4510   17.6885 He  0  0  0  0  0  0  0  0  0  0  0  0
    8.0596   -7.8270   15.7108 He  0  0  0  0  0  0  0  0  0  0  0  0
   10.0050   -4.3642   23.5522 He  0  0  0  0  0  0  0  0  0  0  0  0
   10.4828   -3.8282   18.4559 He  0  0  0  0  0  0  0  0  0  0  0  0
    2.9133   -9.7777   15.3713 He  0  0  0  0  0  0  0  0  0  0  0  0
    2.7134  -10.2185   18.1986 He  0  0  0  0  0  0  0  0  0  0  0  0
    9.9952   -4.6305   21.7053 He  0  0  0  0  0  0  0  0  0  0  0  0
   11.2451   -4.6909   19.6366 He  0  0  0  0  0  0  0  0  0  0  0  0
    6.2581   -8.2822   17.3226 He  0  0  0  0  0  0  0  0  0  0  0  0
  1 17  1  0
  1 18  2  0
  2  4  4  0
  2  5  1  0
  2  6  2  0
  2  7  1  0
  2  9  3  0
  2 10  2  0
  2 11  4  0
  2 18  1  0
  2 24  2  0
  3  4  3  0
  3  7  4  0
  3  8  1  0
  3 12  1  0
  3 16  4  0
  3 21  2  0
  3 22  3  0
  4 10  3  0
  4 11  4  0
  4 12  3  0
  4 13  3  0
  4 14  3  0
  4 16  2  0
  4 21  4  0
  4 22  4  0
  4 24  3  0
  5  8  2  0
  5 11  4  0
  5 15  2  0
  5 19  4  0
  5 24  1  0
  6  7  3  0
  6  8  1  0
  6 10  1  0
  6 12  3  0
  6 15  2  0
  6 16  4  0
  6 21  4  0
  6 22  2  0
  7 19  1  0
  7 21  3  0
  7 23  1  0
  8 10  3  0
  8 12  2  0
  8 13  2  0
  8 14  3  0
  8 18  2  0
  8 19  2  0
  8 20  1  0
  8 22  2  0
  8 24  2  0
  9 13  2  0
  9 15  3  0
  9 16  2  0
  9 17  3  0
  9 18  1  0
  9 20  2  0
  9 22  2  0
 10 13  1  0
 10 15  4  0
 10 16  3  0
 10 21  4  0
 11 12  1  0
 11 13  1  0
 11 17  2  0
 11 18  1  0
 11 22  3  0
 12 16  2  0
 12 18  1  0
 12 20  2  0
 12 24  2  0
 13 16  2  0
 13 18  2  0
 13 20  4  0
 14 18  1  0
 14 19  4  0
 15 16  3  0
 15 19  4  0
 15 20  1  0
 15 22  1  0
 15 23  3  0
 15 24  4  0
 16 18  1  0
 16 19  3  0
 16 21  2  0
 16 23  4  0
 16 24  4  0
 17 18  4  0
 17 20  4  0
 17 24  2  0
 18 19  3  0
 18 20  2  0
 18 24  1  0
 19 21  4  0
 20 21  4  0
 20 24  4  0
 21 24  2  0
 22 24  2  0
 23 24  4  0
M  END
$$$$

 Created by Python create_sdf_string function

 34 22  0  0  0  0  0  0  0  0999 V2000
    7.2246   -8.9560   16.5272 C   0  0  0  0  0  0  0  0  0  0  0  0
   10.8568   -2.9418   23.9688 C   0  0  0  0  0  0  0  0  0  0  0  0
    9.6003   -5.8413   18.4500 C   0  0  0  0  0  0  0  0  0  0  0  0
    4.1632  -10.3919   18.2571 C   0  0  0  0  0  0  0  0  0  0  0  0
    2.1930  -10.2265   17.6471 C   0  0  0  0  0  0  0  0  0  0  0  0
    7.9821   -8.0094   15.4618 C   0  0  0  0  0  0  0  0  0  0  0  0
    7.9489   -7.7603   16.2169 C   0  0  0  0  0  0  0  0  0  0  0  0
   10.6312   -3.9994   23.5810 C   0  0  0  0  0  0  0  0  0  0  0  0
   10.7409   -4.0503   18.7671 C   0  0  0  0  0  0  0  0  0  0  0  0
    5.1901   -8.9256   15.5034 C   0  0  0  0  0  0  0  0  0  0  0  0
    6.5479   -7.5557   17.9093 F   0  0  0  0  0  0  0  0  0  0  0  0
    9.7803   -5.0771   17.6752 N   0  0  0  0  0  0  0  0  0  0  0  0
    3.6297   -9.1683   16.4912 C   0  0  0  0  0  0  0  0  0  0  0  0
    5.1123   -9.2243   15.1820 C   0  0  0  0  0  0  0  0  0  0  0  0
    2.9010   -9.2290   16.1130 C   0  0  0  0  0  0  0  0  0  0  0  0
    4.3750   -9.4111   17.2810 C   0  0  0  0  0  0  0  0  0  0  0  0
    8.4671   -7.0632   17.2255 C   0  0  0  0  0  0  0  0  0  0  0  0
    2.6299  -10.8937   18.4751 C   0  0  0  0  0  0  0  0  0  0  0  0
   11.4495   -2.4171   20.4687 C   0  0  0  0  0  0  0  0  0  0  0  0
    8.8468   -4.8169   15.9281 C   0  0  0  0  0  0  0  0  0  0  0  0
    9.6525   -7.4225   18.7662 C   0  0  0  0  0  0  0  0  0  0  0  0
   10.6755   -3.9485   18.6332 C   0  0  0  0  0  0  0  0  0  0  0  0
   11.3982   -2.0166   22.7649 N   0  0  0  0  0  0  0  0  0  0  0  0
    8.0887   -6.5188   15.7567 C   0  0  0  0  0  0  0  0  0  0  0  0
    9.7789   -3.9929   16.3762 C   0  0  0  0  0  0  0  0  0  0  0  0
   11.3452   -2.6128   21.5301 C   0  0  0  0  0  0  0  0  0  0  0  0
    2.5045  -10.5241   18.0926 C   0  0  0  0  0  0  0  0  0  0  0  0
   10.8701   -4.0183   21.3146 C   0  0  0  0  0  0  0  0  0  0  0  0
    8.9334   -7.5955   17.8513 C   0  0  0  0  0  0  0  0  0  0  0  0
   10.6967   -4.5891   22.2311 C   0  0  0  0  0  0  0  0  0  0  0  0
   11.3174   -2.9030   18.3480 O   0  0  0  0  0  0  0  0  0  0  0  0
   10.7819   -4.5471   19.9801 C   0  0  0  0  0  0  0  0  0  0  0  0
    6.9163   -9.7574   14.9079 O   0  0  0  0  0  0  0  0  0  0  0  0
    5.9283   -8.5115   17.1760 C   0  0  0  0  0  0  0  0  0  0  0  0
  2  8  4  0
  2 23  4  0
  3  9  4  0
  3 12  4  0
  4 16  4  0
  5 27  4  0
  6  7  1  0
  8 30  4  0
 10 14  4  0
 13 15  4  0
 13 16  4  0
 17 29  1  0
 18 27  4  0
 19 26  4  0
 20 25  4  0
 21 29  1  0
 22 31  4  0
 22 32  4  0
 23 26  4  0
 26 28  4  0
 28 30  4  0
 28 32  1  0
M  END
$$$$

 Created by Python create_sdf_string function

 34 55  0  0  0  0  0  0  0  0999 V2000
   11.0183   -2.9347   23.8757 C   0  0  0  0  0  0  0  0  0  0  0  0
    2.2803  -10.1322   18.5256 C   0  0  0  0  0  0  0  0  0  0  0  0
    7.9891   -8.4835   15.7116 C   0  0  0  0  0  0  0  0  0  0  0  0
   10.7882   -4.3181   23.6312 B   0  0  0  0  0  0  0  0  0  0  0  0
    8.5628   -4.6236   18.3932 O   0  0  0  0  0  0  0  0  0  0  0  0
    5.6441   -9.2275   15.4929 C   0  0  0  0  0  0  0  0  0  0  0  0
    5.1658   -8.4997   20.3272 P   0  0  0  0  0  0  0  0  0  0  0  0
    3.4503  -10.6673   18.7752 C   0  0  0  0  0  0  0  0  0  0  0  0
    9.2431   -4.7491   15.7175 C   0  0  0  0  0  0  0  0  0  0  0  0
   10.1065   -6.6258   19.4822 C   0  0  0  0  0  0  0  0  0  0  0  0
   11.0954   -2.1993   22.7261 N   0  0  0  0  0  0  0  0  0  0  0  0
    8.3866   -6.4109   15.6571 F   0  0  0  0  0  0  0  0  0  0  0  0
    9.4197   -3.6329   16.9403 C   0  0  0  0  0  0  0  0  0  0  0  0
   10.7864   -2.6983   20.9105 C   0  0  0  0  0  0  0  0  0  0  0  0
    2.3409  -10.7288   18.0068 P   0  0  0  0  0  0  0  0  0  0  0  0
   10.9639   -4.6684   21.6818 C   0  0  0  0  0  0  0  0  0  0  0  0
    9.4469   -7.0406   17.7010 C   0  0  0  0  0  0  0  0  0  0  0  0
   10.1958   -4.7335   22.6148 C   0  0  0  0  0  0  0  0  0  0  0  0
   11.3597   -3.0389   18.3211 O   0  0  0  0  0  0  0  0  0  0  0  0
   11.0284   -4.0409   19.7817 C   0  0  0  0  0  0  0  0  0  0  0  0
    6.9577  -10.1733   18.3605 Cl  0  0  0  0  0  0  0  0  0  0  0  0
    8.3955   -9.5193   15.4616 He  0  0  0  0  0  0  0  0  0  0  0  0
    9.5733   -5.8747   18.1016 He  0  0  0  0  0  0  0  0  0  0  0  0
    3.8870  -10.2336   19.1181 He  0  0  0  0  0  0  0  0  0  0  0  0
    7.5538   -6.1576   16.0982 He  0  0  0  0  0  0  0  0  0  0  0  0
    6.8502   -7.4531   15.8447 He  0  0  0  0  0  0  0  0  0  0  0  0
    6.4242   -8.6412   18.9481 He  0  0  0  0  0  0  0  0  0  0  0  0
    8.3949   -6.0597   18.7298 He  0  0  0  0  0  0  0  0  0  0  0  0
    1.4653   -8.9163   18.3750 He  0  0  0  0  0  0  0  0  0  0  0  0
    2.3358   -8.1218   15.9722 He  0  0  0  0  0  0  0  0  0  0  0  0
    7.8995   -5.9163   16.2764 He  0  0  0  0  0  0  0  0  0  0  0  0
   11.7551   -2.2138   20.2399 He  0  0  0  0  0  0  0  0  0  0  0  0
   10.6760   -3.9379   18.5572 He  0  0  0  0  0  0  0  0  0  0  0  0
   10.0122   -9.5754   14.6881 He  0  0  0  0  0  0  0  0  0  0  0  0
  1  3  4  0
  1 11  4  0
  1 12  3  0
  1 20  3  0
  2  6  1  0
  2  7  1  0
  2 14  3  0
  2 21  3  0
  3  6  3  0
  3 10  1  0
  3 12  3  0
  3 21  1  0
  4  5  1  0
  4  6  4  0
  4  7  2  0
  4 11  2  0
  4 18  4  0
  4 21  2  0
  5  8  3  0
  5  9  4  0
  5 11  1  0
  5 13  2  0
  5 17  1  0
  5 21  4  0
  6 10  4  0
  6 11  1  0
  6 17  1  0
  6 19  3  0
  7 10  3  0
  7 11  2  0
  7 16  3  0
  7 18  1  0
  7 19  4  0
  8 12  1  0
  8 21  3  0
  9 12  2  0
  9 13  4  0
  9 21  4  0
 10 11  4  0
 10 14  4  0
 10 19  3  0
 11 14  4  0
 12 13  2  0
 12 17  1  0
 13 16  1  0
 13 21  2  0
 14 16  4  0
 14 21  1  0
 15 17  4  0
 15 18  4  0
 16 19  2  0
 16 20  1  0
 16 21  1  0
 18 21  3  0
 19 21  2  0
M  END
$$$$

 Created by Python create_sdf_string function

 34 23  0  0  0  0  0  0  0  0999 V2000
    7.4281   -8.6939   15.7569 C   0  0  0  0  0  0  0  0  0  0  0  0
   10.9015   -2.8812   23.8790 C   0  0  0  0  0  0  0  0  0  0  0  0
    9.7093   -5.7810   18.2865 C   0  0  0  0  0  0  0  0  0  0  0  0
    4.1416   -9.9263   18.1570 C   0  0  0  0  0  0  0  0  0  0  0  0
    1.9633  -10.2870   17.9317 C   0  0  0  0  0  0  0  0  0  0  0  0
    7.8835   -8.4665   15.6822 C   0  0  0  0  0  0  0  0  0  0  0  0
    7.3724   -6.5241   16.1311 C   0  0  0  0  0  0  0  0  0  0  0  0
   10.7019   -4.2102   23.7780 C   0  0  0  0  0  0  0  0  0  0  0  0
    9.5589   -4.8084   17.5975 C   0  0  0  0  0  0  0  0  0  0  0  0
    6.4336   -7.9409   16.2824 C   0  0  0  0  0  0  0  0  0  0  0  0
    6.1372   -8.6354   18.0849 C   0  0  0  0  0  0  0  0  0  0  0  0
    8.7412   -6.5515   18.1664 C   0  0  0  0  0  0  0  0  0  0  0  0
    2.0212   -9.5329   17.0731 C   0  0  0  0  0  0  0  0  0  0  0  0
    5.1882   -8.6419   16.1111 C   0  0  0  0  0  0  0  0  0  0  0  0
    3.0309   -9.0809   16.6472 C   0  0  0  0  0  0  0  0  0  0  0  0
    5.6352   -9.1099   18.8789 C   0  0  0  0  0  0  0  0  0  0  0  0
    8.0206   -6.0275   16.3437 C   0  0  0  0  0  0  0  0  0  0  0  0
    3.5049  -10.6787   18.6423 C   0  0  0  0  0  0  0  0  0  0  0  0
   11.4804   -2.1598   20.4314 N   0  0  0  0  0  0  0  0  0  0  0  0
    9.1381   -4.3479   15.8487 C   0  0  0  0  0  0  0  0  0  0  0  0
   10.2299   -5.9430   19.4192 C   0  0  0  0  0  0  0  0  0  0  0  0
   10.6959   -3.8428   18.7754 C   0  0  0  0  0  0  0  0  0  0  0  0
   11.1838   -2.1721   22.7406 N   0  0  0  0  0  0  0  0  0  0  0  0
    8.1496   -6.4914   16.0165 C   0  0  0  0  0  0  0  0  0  0  0  0
    9.6597   -3.6977   16.6117 C   0  0  0  0  0  0  0  0  0  0  0  0
   11.2051   -2.7938   21.5289 C   0  0  0  0  0  0  0  0  0  0  0  0
    2.1261  -10.6789   18.3477 C   0  0  0  0  0  0  0  0  0  0  0  0
   10.8966   -4.1206   21.4382 C   0  0  0  0  0  0  0  0  0  0  0  0
    9.2051   -7.2622   17.6950 C   0  0  0  0  0  0  0  0  0  0  0  0
   10.7151   -4.9071   22.5526 C   0  0  0  0  0  0  0  0  0  0  0  0
   11.1397   -2.8806   18.4155 O   0  0  0  0  0  0  0  0  0  0  0  0
   10.8525   -4.4588   20.0170 C   0  0  0  0  0  0  0  0  0  0  0  0
    8.6041   -8.7348   15.1697 F   0  0  0  0  0  0  0  0  0  0  0  0
    6.1534   -9.0232   17.6440 C   0  0  0  0  0  0  0  0  0  0  0  0
  1  6  1  0
  2  8  4  0
  2 23  4  0
  3  9  4  0
  3 21  4  0
  4 18  4  0
  5 13  4  0
  5 27  4  0
  6 33  1  0
  8 30  4  0
  9 25  4  0
 13 15  4  0
 18 27  4  0
 19 26  4  0
 19 31  4  0
 20 25  4  0
 21 32  4  0
 22 31  4  0
 22 32  4  0
 23 26  4  0
 26 28  4  0
 28 30  4  0
 28 32  4  0
M  END
$$$$

 Created by Python create_sdf_string function

 34 87  0  0  0  0  0  0  0  0999 V2000
   10.9393   -2.7213   24.3234 C   0  0  0  0  0  0  0  0  0  0  0  0
    9.3895   -4.8916   18.1133 F   0  0  0  0  0  0  0  0  0  0  0  0
    1.5802   -9.9185   18.0990 C   0  0  0  0  0  0  0  0  0  0  0  0
    7.8376   -8.3124   16.3059 C   0  0  0  0  0  0  0  0  0  0  0  0
    7.5718   -6.4790   17.4722 O   0  0  0  0  0  0  0  0  0  0  0  0
   10.9987   -4.5813   23.9018 O   0  0  0  0  0  0  0  0  0  0  0  0
    9.5924   -5.6620   16.9758 C   0  0  0  0  0  0  0  0  0  0  0  0
    1.3510   -9.0423   16.1633 Br  0  0  0  0  0  0  0  0  0  0  0  0
    3.1690   -8.9941   17.1647 C   0  0  0  0  0  0  0  0  0  0  0  0
    5.9088   -7.8401   19.3850 Br  0  0  0  0  0  0  0  0  0  0  0  0
    4.0123  -10.4414   18.9785 C   0  0  0  0  0  0  0  0  0  0  0  0
   11.5957   -1.7076   20.2770 N   0  0  0  0  0  0  0  0  0  0  0  0
    8.8986   -3.8974   16.0037 C   0  0  0  0  0  0  0  0  0  0  0  0
   11.2914   -6.5042   19.1523 S   0  0  0  0  0  0  0  0  0  0  0  0
   10.3580   -4.1140   19.0241 C   0  0  0  0  0  0  0  0  0  0  0  0
   10.4401   -2.0268   22.9354 N   0  0  0  0  0  0  0  0  0  0  0  0
    9.9679   -3.2574   16.3299 C   0  0  0  0  0  0  0  0  0  0  0  0
    2.4870   -9.9730   18.3789 C   0  0  0  0  0  0  0  0  0  0  0  0
   10.0666   -6.7029   18.4933 C   0  0  0  0  0  0  0  0  0  0  0  0
   10.6823   -5.1068   22.3074 C   0  0  0  0  0  0  0  0  0  0  0  0
   11.6637   -3.5223   18.4219 O   0  0  0  0  0  0  0  0  0  0  0  0
   10.9527   -4.8654   19.4916 C   0  0  0  0  0  0  0  0  0  0  0  0
    8.3391   -8.2158   16.0857 N   0  0  0  0  0  0  0  0  0  0  0  0
    7.1073   -9.6978   17.7981 N   0  0  0  0  0  0  0  0  0  0  0  0
    8.0426  -10.1843   16.5394 He  0  0  0  0  0  0  0  0  0  0  0  0
    2.8596   -7.1511   16.0229 He  0  0  0  0  0  0  0  0  0  0  0  0
    6.0199   -8.8203   15.1538 He  0  0  0  0  0  0  0  0  0  0  0  0
    5.1066   -8.6347   18.4098 He  0  0  0  0  0  0  0  0  0  0  0  0
    9.0113   -6.8881   18.7671 He  0  0  0  0  0  0  0  0  0  0  0  0
    4.9150   -8.4442   15.8257 He  0  0  0  0  0  0  0  0  0  0  0  0
    8.3188   -5.2678   17.4063 He  0  0  0  0  0  0  0  0  0  0  0  0
    7.5288   -5.7981   16.4807 He  0  0  0  0  0  0  0  0  0  0  0  0
   11.7225   -3.2061   22.2317 He  0  0  0  0  0  0  0  0  0  0  0  0
   10.5025   -4.4607   20.9252 He  0  0  0  0  0  0  0  0  0  0  0  0
  1  5  2  0
  1  6  4  0
  1  7  2  0
  1  8  4  0
  1 16  4  0
  1 19  2  0
  2  9  3  0
  2 10  4  0
  2 11  4  0
  2 14  3  0
  2 18  3  0
  2 23  4  0
  2 24  3  0
  3  7  3  0
  3 10  4  0
  3 14  3  0
  3 18  4  0
  3 21  2  0
  3 23  1  0
  3 24  3  0
  4 10  1  0
  4 12  2  0
  4 23  1  0
  5  6  3  0
  5  9  3  0
  5 10  4  0
  5 11  2  0
  5 12  4  0
  5 16  2  0
  5 19  4  0
  5 20  3  0
  6  8  1  0
  6  9  3  0
  6 10  1  0
  6 13  2  0
  6 19  2  0
  7 10  4  0
  7 11  2  0
  7 13  1  0
  7 23  2  0
  7 24  1  0
  8 12  4  0
  8 20  3  0
  8 22  4  0
  9 11  2  0
  9 12  1  0
  9 13  2  0
  9 15  1  0
  9 18  1  0
  9 21  1  0
  9 22  4  0
 10 11  4  0
 10 12  4  0
 10 14  2  0
 10 15  2  0
 10 17  4  0
 10 18  1  0
 10 22  1  0
 10 23  2  0
 10 24  2  0
 11 13  2  0
 11 14  4  0
 11 17  3  0
 11 18  4  0
 11 19  4  0
 11 23  2  0
 12 14  4  0
 12 17  3  0
 12 23  3  0
 12 24  2  0
 13 17  4  0
 13 20  4  0
 13 24  2  0
 14 15  4  0
 14 19  4  0
 15 18  1  0
 15 21  4  0
 15 22  4  0
 16 23  2  0
 16 24  2  0
 17 20  3  0
 17 24  2  0
 18 23  1  0
 20 21  4  0
 20 23  4  0
 21 23  3  0
 22 23  2  0
M  END
$$$$

 Created by Python create_sdf_string function

 34 20  0  0  0  0  0  0  0  0999 V2000
    7.2891   -9.1878   16.3272 C   0  0  0  0  0  0  0  0  0  0  0  0
   10.6968   -3.2109   24.1440 C   0  0  0  0  0  0  0  0  0  0  0  0
    9.6940   -5.0322   17.7831 C   0  0  0  0  0  0  0  0  0  0  0  0
    3.1683   -8.2725   15.9495 C   0  0  0  0  0  0  0  0  0  0  0  0
    1.7326  -10.1386   17.6604 C   0  0  0  0  0  0  0  0  0  0  0  0
    7.8272   -8.3380   16.1366 C   0  0  0  0  0  0  0  0  0  0  0  0
    7.3326   -6.9444   17.4399 C   0  0  0  0  0  0  0  0  0  0  0  0
   10.8397   -4.4500   23.8245 C   0  0  0  0  0  0  0  0  0  0  0  0
    9.2544   -5.2535   17.1718 C   0  0  0  0  0  0  0  0  0  0  0  0
    5.8500   -8.4917   15.6743 C   0  0  0  0  0  0  0  0  0  0  0  0
    4.9773   -8.9004   17.6478 C   0  0  0  0  0  0  0  0  0  0  0  0
    8.9975   -6.8850   18.0876 C   0  0  0  0  0  0  0  0  0  0  0  0
    1.7695   -9.2790   16.6266 C   0  0  0  0  0  0  0  0  0  0  0  0
    4.7963   -8.3677   16.1457 C   0  0  0  0  0  0  0  0  0  0  0  0
    3.2158   -9.0163   16.7950 C   0  0  0  0  0  0  0  0  0  0  0  0
    6.0093   -8.2734   18.6187 O   0  0  0  0  0  0  0  0  0  0  0  0
    8.7769   -5.3495   16.9106 C   0  0  0  0  0  0  0  0  0  0  0  0
    3.8030  -10.2121   18.3765 C   0  0  0  0  0  0  0  0  0  0  0  0
   11.2924   -2.4576   20.6573 N   0  0  0  0  0  0  0  0  0  0  0  0
    9.0992   -3.6823   15.9318 C   0  0  0  0  0  0  0  0  0  0  0  0
   10.6498   -6.2187   19.5512 C   0  0  0  0  0  0  0  0  0  0  0  0
   10.7115   -4.1637   18.8332 C   0  0  0  0  0  0  0  0  0  0  0  0
   10.8543   -2.3917   23.0896 N   0  0  0  0  0  0  0  0  0  0  0  0
    7.4678   -6.1165   16.1594 C   0  0  0  0  0  0  0  0  0  0  0  0
   10.1231   -3.3492   16.4820 C   0  0  0  0  0  0  0  0  0  0  0  0
   11.0884   -2.9431   21.8670 C   0  0  0  0  0  0  0  0  0  0  0  0
    2.5347  -10.3866   18.1665 C   0  0  0  0  0  0  0  0  0  0  0  0
   11.0937   -4.1909   21.3225 C   0  0  0  0  0  0  0  0  0  0  0  0
   10.0060   -6.9344   18.7079 C   0  0  0  0  0  0  0  0  0  0  0  0
   11.0060   -4.8890   22.4701 C   0  0  0  0  0  0  0  0  0  0  0  0
   11.0176   -3.1432   18.3222 C   0  0  0  0  0  0  0  0  0  0  0  0
   10.9153   -4.7969   19.9545 C   0  0  0  0  0  0  0  0  0  0  0  0
    7.9489   -8.0526   16.1280 C   0  0  0  0  0  0  0  0  0  0  0  0
    6.5099   -8.7734   17.5380 C   0  0  0  0  0  0  0  0  0  0  0  0
  2  8  4  0
  2 23  4  0
  3  9  4  0
  4 15  4  0
  5 13  4  0
  5 27  4  0
  6 33  1  0
  8 30  4  0
 12 29  4  0
 18 27  4  0
 19 26  4  0
 20 25  4  0
 21 29  4  0
 21 32  4  0
 22 31  4  0
 22 32  4  0
 23 26  4  0
 26 28  4  0
 28 30  4  0
 28 32  4  0
M  END
$$$$

 Created by Python create_sdf_string function

 34 70  0  0  0  0  0  0  0  0999 V2000
    7.6303   -8.2515   18.0215 C   0  0  0  0  0  0  0  0  0  0  0  0
   11.1249   -3.0433   23.9709 C   0  0  0  0  0  0  0  0  0  0  0  0
    3.3533   -7.5744   16.9663 P   0  0  0  0  0  0  0  0  0  0  0  0
    1.5963  -10.3267   17.6394 C   0  0  0  0  0  0  0  0  0  0  0  0
    7.4623   -7.9514   16.0429 C   0  0  0  0  0  0  0  0  0  0  0  0
   10.8770   -4.2243   23.4952 C   0  0  0  0  0  0  0  0  0  0  0  0
    5.1159   -9.2980   16.1105 S   0  0  0  0  0  0  0  0  0  0  0  0
    3.7302   -8.4525   17.2910 F   0  0  0  0  0  0  0  0  0  0  0  0
    7.9968   -6.4774   16.3247 S   0  0  0  0  0  0  0  0  0  0  0  0
    1.8943   -9.4798   15.8458 N   0  0  0  0  0  0  0  0  0  0  0  0
    4.2725   -8.9771   18.4274 Se  0  0  0  0  0  0  0  0  0  0  0  0
    7.0362   -4.3190   17.9217 C   0  0  0  0  0  0  0  0  0  0  0  0
    4.3943  -10.5854   18.6357 C   0  0  0  0  0  0  0  0  0  0  0  0
    8.3853   -3.2009   15.7705 S   0  0  0  0  0  0  0  0  0  0  0  0
   10.3823   -4.0666   18.6512 C   0  0  0  0  0  0  0  0  0  0  0  0
    5.6595   -6.9621   16.6670 P   0  0  0  0  0  0  0  0  0  0  0  0
   10.1047   -3.5910   16.9638 C   0  0  0  0  0  0  0  0  0  0  0  0
   10.6614   -2.9795   21.3692 C   0  0  0  0  0  0  0  0  0  0  0  0
    3.1835  -10.3282   18.4593 C   0  0  0  0  0  0  0  0  0  0  0  0
   10.6656   -4.1678   21.0592 C   0  0  0  0  0  0  0  0  0  0  0  0
   11.5335   -4.8907   22.7402 C   0  0  0  0  0  0  0  0  0  0  0  0
   10.4995   -3.1041   18.0562 C   0  0  0  0  0  0  0  0  0  0  0  0
    9.9231   -5.1000   17.8544 He  0  0  0  0  0  0  0  0  0  0  0  0
    5.9596   -6.8304   16.9503 He  0  0  0  0  0  0  0  0  0  0  0  0
    9.2637   -6.2669   17.3750 He  0  0  0  0  0  0  0  0  0  0  0  0
    5.7442   -9.8824   14.2901 He  0  0  0  0  0  0  0  0  0  0  0  0
    5.5700   -8.6963   21.1182 He  0  0  0  0  0  0  0  0  0  0  0  0
   11.9243   -2.7002   20.4139 He  0  0  0  0  0  0  0  0  0  0  0  0
   10.1868   -7.8002   20.4881 He  0  0  0  0  0  0  0  0  0  0  0  0
   10.6339   -1.9397   22.7834 He  0  0  0  0  0  0  0  0  0  0  0  0
   10.5264   -6.9950   18.9265 He  0  0  0  0  0  0  0  0  0  0  0  0
   10.6836   -4.9225   19.4151 He  0  0  0  0  0  0  0  0  0  0  0  0
    8.7309   -8.5266   15.3357 He  0  0  0  0  0  0  0  0  0  0  0  0
    6.2550   -9.3350   17.7494 He  0  0  0  0  0  0  0  0  0  0  0  0
  1  8  2  0
  1 11  4  0
  1 16  1  0
  1 17  3  0
  1 21  1  0
  2  3  3  0
  2  6  3  0
  2  9  4  0
  2 11  3  0
  2 12  4  0
  2 16  4  0
  2 17  1  0
  3 10  2  0
  3 11  2  0
  3 12  3  0
  3 14  1  0
  3 15  1  0
  3 18  2  0
  3 20  4  0
  3 21  1  0
  4 10  4  0
  4 11  4  0
  4 16  3  0
  4 17  3  0
  4 19  4  0
  5  6  2  0
  5  7  3  0
  5  8  2  0
  5  9  3  0
  5 16  1  0
  6  8  3  0
  6 10  3  0
  6 11  1  0
  6 12  2  0
  6 14  4  0
  6 17  2  0
  7 17  2  0
  7 19  4  0
  7 20  2  0
  8  9  1  0
  8 14  4  0
  8 16  2  0
  8 18  4  0
  8 19  1  0
  8 22  3  0
  9 11  3  0
  9 14  4  0
  9 16  3  0
  9 18  4  0
 10 13  2  0
 10 15  4  0
 10 16  4  0
 10 18  2  0
 12 13  4  0
 12 16  3  0
 12 18  1  0
 12 20  1  0
 14 15  4  0
 14 16  2  0
 14 17  4  0
 14 19  3  0
 15 16  3  0
 15 19  1  0
 15 22  1  0
 16 19  3  0
 16 22  3  0
 18 20  4  0
 19 20  3  0
 19 21  2  0
 20 21  4  0
M  END
$$$$

 Created by Python create_sdf_string function

 34 26  0  0  0  0  0  0  0  0999 V2000
    7.5243   -8.0037   17.6707 C   0  0  0  0  0  0  0  0  0  0  0  0
   10.8959   -3.1161   23.9084 C   0  0  0  0  0  0  0  0  0  0  0  0
    9.8329   -5.0545   17.8604 C   0  0  0  0  0  0  0  0  0  0  0  0
    3.5528   -8.3741   16.3247 C   0  0  0  0  0  0  0  0  0  0  0  0
    1.7953  -10.3017   17.6053 C   0  0  0  0  0  0  0  0  0  0  0  0
    7.5927   -7.9327   15.9734 C   0  0  0  0  0  0  0  0  0  0  0  0
    6.0818   -7.1367   16.8371 C   0  0  0  0  0  0  0  0  0  0  0  0
   11.0674   -4.3037   23.6881 C   0  0  0  0  0  0  0  0  0  0  0  0
    9.3678   -5.9066   17.7188 C   0  0  0  0  0  0  0  0  0  0  0  0
    5.2642   -8.8275   15.9178 C   0  0  0  0  0  0  0  0  0  0  0  0
    3.6299   -8.9316   16.7386 C   0  0  0  0  0  0  0  0  0  0  0  0
    8.0548   -6.0089   16.3203 C   0  0  0  0  0  0  0  0  0  0  0  0
    2.0159   -9.4181   16.6947 C   0  0  0  0  0  0  0  0  0  0  0  0
    6.1369   -9.2497   15.1570 C   0  0  0  0  0  0  0  0  0  0  0  0
    4.4792   -9.4725   17.8281 C   0  0  0  0  0  0  0  0  0  0  0  0
    5.8955   -9.0750   19.1399 O   0  0  0  0  0  0  0  0  0  0  0  0
    8.3434   -5.2328   16.5612 C   0  0  0  0  0  0  0  0  0  0  0  0
    3.9481  -10.4553   18.6071 C   0  0  0  0  0  0  0  0  0  0  0  0
   11.2238   -2.3195   20.3608 O   0  0  0  0  0  0  0  0  0  0  0  0
    9.0263   -3.7121   15.9056 C   0  0  0  0  0  0  0  0  0  0  0  0
   10.1394   -6.6202   19.5552 C   0  0  0  0  0  0  0  0  0  0  0  0
   10.5581   -4.1991   18.7914 C   0  0  0  0  0  0  0  0  0  0  0  0
   10.8551   -2.3235   22.7574 C   0  0  0  0  0  0  0  0  0  0  0  0
    6.0968   -7.4926   16.6768 C   0  0  0  0  0  0  0  0  0  0  0  0
    9.9592   -3.4088   16.6667 C   0  0  0  0  0  0  0  0  0  0  0  0
   10.9974   -2.9624   21.3740 C   0  0  0  0  0  0  0  0  0  0  0  0
    2.7261  -10.6765   18.3784 C   0  0  0  0  0  0  0  0  0  0  0  0
   10.9574   -4.2321   21.2676 C   0  0  0  0  0  0  0  0  0  0  0  0
   10.1383   -6.9401   18.8603 C   0  0  0  0  0  0  0  0  0  0  0  0
   11.0939   -4.9381   22.5007 C   0  0  0  0  0  0  0  0  0  0  0  0
   10.7898   -3.0884   18.1258 C   0  0  0  0  0  0  0  0  0  0  0  0
   10.7428   -4.8152   19.9153 C   0  0  0  0  0  0  0  0  0  0  0  0
    8.0483   -8.3084   15.5391 C   0  0  0  0  0  0  0  0  0  0  0  0
    6.0721   -8.7991   17.6279 C   0  0  0  0  0  0  0  0  0  0  0  0
  2  8  4  0
  2 23  4  0
  3  9  4  0
  3 22  4  0
  4 11  4  0
  5 13  4  0
  5 27  4  0
  6 33  1  0
  7 24  4  0
  8 30  4  0
 11 13  4  0
 11 15  4  0
 15 18  4  0
 17 20  4  0
 18 27  4  0
 19 26  1  0
 20 25  4  0
 21 29  4  0
 21 32  4  0
 22 31  4  0
 22 32  4  0
 23 26  4  0
 25 31  4  0
 26 28  4  0
 28 30  4  0
 28 32  1  0
M  END
$$$$

 Created by Python create_sdf_string function

 34 70  0  0  0  0  0  0  0  0999 V2000
    6.9309   -6.8084   17.1953 N   0  0  0  0  0  0  0  0  0  0  0  0
   11.4957   -2.8330   24.1634 C   0  0  0  0  0  0  0  0  0  0  0  0
    9.0780   -4.8914   18.0795 C   0  0  0  0  0  0  0  0  0  0  0  0
    4.0344   -7.6744   15.5370 S   0  0  0  0  0  0  0  0  0  0  0  0
    1.6437  -10.4503   17.6497 F   0  0  0  0  0  0  0  0  0  0  0  0
    6.5380   -7.5874   15.5625 F   0  0  0  0  0  0  0  0  0  0  0  0
    3.2190   -7.8652   17.3018 O   0  0  0  0  0  0  0  0  0  0  0  0
    2.5169  -10.4558   17.7714 C   0  0  0  0  0  0  0  0  0  0  0  0
    5.7005   -7.1797   14.7167 F   0  0  0  0  0  0  0  0  0  0  0  0
    8.1797   -4.6855   17.4490 F   0  0  0  0  0  0  0  0  0  0  0  0
    3.9456  -10.7553   18.6722 C   0  0  0  0  0  0  0  0  0  0  0  0
   11.1912   -2.2803   20.5047 O   0  0  0  0  0  0  0  0  0  0  0  0
   10.9147   -2.4973   22.2794 C   0  0  0  0  0  0  0  0  0  0  0  0
    5.5924   -8.1631   16.6689 Se  0  0  0  0  0  0  0  0  0  0  0  0
   10.0370   -3.8352   16.9706 C   0  0  0  0  0  0  0  0  0  0  0  0
   11.3325   -2.8533   21.3744 N   0  0  0  0  0  0  0  0  0  0  0  0
    2.7254  -10.1952   18.3424 C   0  0  0  0  0  0  0  0  0  0  0  0
    9.8559   -7.0803   18.9927 C   0  0  0  0  0  0  0  0  0  0  0  0
   10.4559   -3.6297   17.4472 C   0  0  0  0  0  0  0  0  0  0  0  0
    9.8380   -5.0452   19.8421 C   0  0  0  0  0  0  0  0  0  0  0  0
    7.4261   -7.3007   17.3600 F   0  0  0  0  0  0  0  0  0  0  0  0
    7.7776   -7.7787   15.4805 He  0  0  0  0  0  0  0  0  0  0  0  0
    6.5787   -7.4078   16.8327 He  0  0  0  0  0  0  0  0  0  0  0  0
   10.7147   -4.4923   23.9692 He  0  0  0  0  0  0  0  0  0  0  0  0
    9.7744   -5.7771   17.3837 He  0  0  0  0  0  0  0  0  0  0  0  0
    6.5790   -7.0869   14.7581 He  0  0  0  0  0  0  0  0  0  0  0  0
    3.2795   -9.5007   18.2362 He  0  0  0  0  0  0  0  0  0  0  0  0
    3.8895  -10.1023   19.8433 He  0  0  0  0  0  0  0  0  0  0  0  0
    9.2356   -3.6898   15.2199 He  0  0  0  0  0  0  0  0  0  0  0  0
    8.9006   -6.9325   20.1769 He  0  0  0  0  0  0  0  0  0  0  0  0
   10.9002   -3.6834   18.7258 He  0  0  0  0  0  0  0  0  0  0  0  0
   10.3862   -4.8844   20.9941 He  0  0  0  0  0  0  0  0  0  0  0  0
   10.9324   -4.8967   22.9660 He  0  0  0  0  0  0  0  0  0  0  0  0
    5.6431   -7.3699   16.7531 He  0  0  0  0  0  0  0  0  0  0  0  0
  1  3  2  0
  1  7  2  0
  1 10  2  0
  1 14  2  0
  1 17  3  0
  1 18  1  0
  2  5  1  0
  2  6  4  0
  2 10  2  0
  2 13  4  0
  2 14  3  0
  2 15  2  0
  2 19  2  0
  3  8  4  0
  3 14  4  0
  3 20  1  0
  4  8  1  0
  4  9  3  0
  4 10  4  0
  4 11  1  0
  4 14  3  0
  4 16  1  0
  4 17  2  0
  4 19  3  0
  4 20  1  0
  5  7  4  0
  5  8  4  0
  5 10  2  0
  5 17  4  0
  5 19  1  0
  5 21  3  0
  6  7  2  0
  6  9  3  0
  6 10  2  0
  6 16  4  0
  6 17  3  0
  7 11  2  0
  7 16  4  0
  7 20  2  0
  8 12  3  0
  8 15  2  0
  8 16  3  0
  8 17  2  0
  8 19  1  0
  8 20  3  0
  8 21  2  0
  9 13  1  0
  9 19  4  0
  9 20  2  0
 10 11  4  0
 10 15  2  0
 10 19  2  0
 11 14  1  0
 11 15  3  0
 11 17  4  0
 11 19  1  0
 11 21  2  0
 12 14  1  0
 12 16  2  0
 13 14  1  0
 13 16  4  0
 13 18  4  0
 14 15  4  0
 14 18  1  0
 15 19  4  0
 16 20  2  0
 17 18  2  0
 18 21  1  0
 19 21  3  0
 20 21  4  0
M  END
$$$$

 Created by Python create_sdf_string function

 34 25  0  0  0  0  0  0  0  0999 V2000
    7.3233   -7.2068   17.2621 N   0  0  0  0  0  0  0  0  0  0  0  0
   11.0706   -3.0250   23.9301 C   0  0  0  0  0  0  0  0  0  0  0  0
    9.7053   -5.3260   18.3576 C   0  0  0  0  0  0  0  0  0  0  0  0
    4.0697   -7.9407   15.8172 C   0  0  0  0  0  0  0  0  0  0  0  0
    1.5153  -10.4137   17.6836 C   0  0  0  0  0  0  0  0  0  0  0  0
    8.1612   -8.0130   15.3358 F   0  0  0  0  0  0  0  0  0  0  0  0
    7.0296   -7.5790   17.0173 C   0  0  0  0  0  0  0  0  0  0  0  0
   10.9186   -4.3345   23.8828 C   0  0  0  0  0  0  0  0  0  0  0  0
    9.1955   -5.6369   17.4810 C   0  0  0  0  0  0  0  0  0  0  0  0
    6.5033   -7.8729   15.7834 C   0  0  0  0  0  0  0  0  0  0  0  0
    3.3339   -8.6327   16.6784 C   0  0  0  0  0  0  0  0  0  0  0  0
    6.7198   -7.3597   15.2435 C   0  0  0  0  0  0  0  0  0  0  0  0
    2.0607  -10.0771   17.5280 C   0  0  0  0  0  0  0  0  0  0  0  0
    5.6763   -7.3259   15.0571 C   0  0  0  0  0  0  0  0  0  0  0  0
    3.4255   -9.5170   17.4158 C   0  0  0  0  0  0  0  0  0  0  0  0
    4.2510  -10.4660   18.6012 C   0  0  0  0  0  0  0  0  0  0  0  0
    8.6397   -5.3960   16.5656 C   0  0  0  0  0  0  0  0  0  0  0  0
    3.7967  -10.7223   18.4902 C   0  0  0  0  0  0  0  0  0  0  0  0
   11.3420   -2.5353   20.2534 O   0  0  0  0  0  0  0  0  0  0  0  0
    9.3722   -3.9459   15.8409 C   0  0  0  0  0  0  0  0  0  0  0  0
    9.8726   -6.4674   19.2348 C   0  0  0  0  0  0  0  0  0  0  0  0
   10.6313   -3.8337   19.0189 C   0  0  0  0  0  0  0  0  0  0  0  0
   11.2131   -2.4378   22.6792 C   0  0  0  0  0  0  0  0  0  0  0  0
    5.2229   -8.4216   17.0105 C   0  0  0  0  0  0  0  0  0  0  0  0
   10.2254   -3.5313   16.5203 C   0  0  0  0  0  0  0  0  0  0  0  0
   11.0916   -3.1462   21.4716 C   0  0  0  0  0  0  0  0  0  0  0  0
    2.4847  -10.8198   18.3325 C   0  0  0  0  0  0  0  0  0  0  0  0
   10.7810   -4.2399   21.2591 C   0  0  0  0  0  0  0  0  0  0  0  0
    9.5932   -7.2928   18.8394 C   0  0  0  0  0  0  0  0  0  0  0  0
   10.8117   -4.9520   22.7083 C   0  0  0  0  0  0  0  0  0  0  0  0
   10.6154   -3.4177   17.6780 C   0  0  0  0  0  0  0  0  0  0  0  0
   10.3833   -4.8340   19.8673 C   0  0  0  0  0  0  0  0  0  0  0  0
    8.0531   -7.4774   17.5879 C   0  0  0  0  0  0  0  0  0  0  0  0
    5.5243   -7.8793   16.8998 C   0  0  0  0  0  0  0  0  0  0  0  0
  1  7  1  0
  2  8  4  0
  2 23  4  0
  3  9  4  0
  3 21  4  0
  3 32  4  0
  5 13  4  0
  5 27  4  0
  8 30  4  0
  9 17  4  0
 11 15  4  0
 16 18  4  0
 17 20  4  0
 18 27  4  0
 19 26  4  0
 20 25  4  0
 21 29  4  0
 22 31  4  0
 22 32  4  0
 23 26  4  0
 25 31  4  0
 26 28  4  0
 28 30  4  0
 28 32  1  0
 29 33  1  0
M  END
$$$$

 Created by Python create_sdf_string function

 34 96  0  0  0  0  0  0  0  0999 V2000
    7.3947   -8.7927   17.1101 C   0  0  0  0  0  0  0  0  0  0  0  0
   10.9088   -2.8476   23.6268 C   0  0  0  0  0  0  0  0  0  0  0  0
   10.5213   -5.3795   18.1264 C   0  0  0  0  0  0  0  0  0  0  0  0
    2.1531  -10.8737   17.6715 C   0  0  0  0  0  0  0  0  0  0  0  0
    8.0330   -8.0955   15.2903 N   0  0  0  0  0  0  0  0  0  0  0  0
   11.0029   -4.2921   24.0133 C   0  0  0  0  0  0  0  0  0  0  0  0
    9.1430   -5.4105   18.2654 C   0  0  0  0  0  0  0  0  0  0  0  0
    2.9152   -8.7607   15.6798 Se  0  0  0  0  0  0  0  0  0  0  0  0
    6.1607   -7.0363   13.9639 N   0  0  0  0  0  0  0  0  0  0  0  0
    5.3272   -6.4234   15.6503 C   0  0  0  0  0  0  0  0  0  0  0  0
    1.3324   -8.6331   15.6928 C   0  0  0  0  0  0  0  0  0  0  0  0
    4.6255   -9.8833   17.3037 F   0  0  0  0  0  0  0  0  0  0  0  0
    4.0509  -11.0141   18.8040 C   0  0  0  0  0  0  0  0  0  0  0  0
   11.8087   -2.7784   20.4881 O   0  0  0  0  0  0  0  0  0  0  0  0
   10.7230   -7.2388   19.6188 N   0  0  0  0  0  0  0  0  0  0  0  0
   10.7971   -3.6964   19.2874 Cl  0  0  0  0  0  0  0  0  0  0  0  0
   10.9221   -2.4398   22.7972 C   0  0  0  0  0  0  0  0  0  0  0  0
    5.2980   -8.5213   15.9524 S   0  0  0  0  0  0  0  0  0  0  0  0
    9.3331   -3.2023   15.8403 Cl  0  0  0  0  0  0  0  0  0  0  0  0
   10.4121   -3.2218   21.5422 C   0  0  0  0  0  0  0  0  0  0  0  0
    2.1473  -10.6342   18.2558 C   0  0  0  0  0  0  0  0  0  0  0  0
   10.3987   -4.6654   20.9975 C   0  0  0  0  0  0  0  0  0  0  0  0
   10.0627   -7.3714   18.7245 C   0  0  0  0  0  0  0  0  0  0  0  0
   10.5929   -4.7331   22.4486 C   0  0  0  0  0  0  0  0  0  0  0  0
   10.6167   -3.5850   17.7270 C   0  0  0  0  0  0  0  0  0  0  0  0
    7.6408   -8.4767   17.9633 F   0  0  0  0  0  0  0  0  0  0  0  0
    4.7957   -6.7816   15.3890 He  0  0  0  0  0  0  0  0  0  0  0  0
    5.8426   -8.0749   17.6982 He  0  0  0  0  0  0  0  0  0  0  0  0
    6.3447   -8.3846   16.1095 He  0  0  0  0  0  0  0  0  0  0  0  0
    1.9948   -9.3829   18.4676 He  0  0  0  0  0  0  0  0  0  0  0  0
    8.6120   -5.4131   17.1879 He  0  0  0  0  0  0  0  0  0  0  0  0
    9.0351   -4.1745   15.8579 He  0  0  0  0  0  0  0  0  0  0  0  0
   10.1373   -4.9479   19.7677 He  0  0  0  0  0  0  0  0  0  0  0  0
    5.9459   -8.5494   14.6984 He  0  0  0  0  0  0  0  0  0  0  0  0
  1  7  4  0
  1  8  1  0
  1 12  2  0
  1 15  4  0
  1 20  2  0
  1 23  4  0
  1 26  2  0
  2  6  4  0
  2  8  4  0
  2 17  2  0
  2 20  3  0
  2 26  1  0
  3  5  1  0
  3  9  3  0
  3 12  1  0
  3 16  3  0
  4  5  3  0
  4  7  2  0
  4  8  2  0
  4 10  1  0
  4 12  3  0
  4 18  4  0
  5 15  4  0
  5 21  4  0
  5 25  4  0
  6  8  1  0
  6  9  1  0
  6 12  4  0
  6 14  4  0
  6 24  4  0
  7  9  2  0
  7 13  1  0
  7 21  1  0
  7 22  2  0
  7 24  3  0
  7 25  3  0
  7 26  1  0
  8  9  2  0
  8 12  3  0
  8 15  3  0
  8 16  2  0
  8 22  2  0
  8 23  1  0
  8 24  4  0
  9 10  4  0
  9 12  2  0
  9 14  2  0
  9 25  1  0
 10 12  4  0
 10 14  2  0
 10 16  4  0
 10 17  4  0
 10 20  1  0
 10 22  4  0
 10 23  3  0
 11 12  1  0
 11 14  3  0
 11 16  1  0
 11 19  4  0
 11 20  3  0
 11 21  4  0
 11 22  2  0
 11 25  3  0
 12 13  1  0
 12 17  3  0
 12 20  2  0
 12 23  2  0
 12 24  3  0
 12 26  4  0
 13 19  1  0
 13 26  1  0
 14 20  4  0
 14 23  2  0
 14 24  1  0
 14 25  2  0
 14 26  4  0
 15 16  1  0
 15 17  4  0
 15 20  3  0
 15 21  1  0
 15 26  2  0
 16 20  2  0
 16 25  4  0
 17 20  4  0
 17 21  4  0
 18 19  3  0
 18 22  2  0
 18 24  2  0
 18 25  3  0
 19 24  4  0
 19 25  4  0
 20 23  3  0
 20 24  4  0
 20 26  2  0
 21 22  3  0
 21 26  1  0
M  END
$$$$

 Created by Python create_sdf_string function

 34 24  0  0  0  0  0  0  0  0999 V2000
    7.6348   -8.3643   17.0805 C   0  0  0  0  0  0  0  0  0  0  0  0
   10.8767   -2.8740   24.0042 C   0  0  0  0  0  0  0  0  0  0  0  0
    9.9396   -5.3550   18.4068 C   0  0  0  0  0  0  0  0  0  0  0  0
    4.5390   -7.1998   15.3988 C   0  0  0  0  0  0  0  0  0  0  0  0
    2.0231  -10.6145   18.0522 C   0  0  0  0  0  0  0  0  0  0  0  0
    7.9735   -8.3026   15.3925 C   0  0  0  0  0  0  0  0  0  0  0  0
    5.9379   -8.6352   17.5593 C   0  0  0  0  0  0  0  0  0  0  0  0
   10.8719   -4.2069   23.9701 C   0  0  0  0  0  0  0  0  0  0  0  0
    9.4600   -5.8043   17.7109 C   0  0  0  0  0  0  0  0  0  0  0  0
    6.6356   -8.4678   16.1653 C   0  0  0  0  0  0  0  0  0  0  0  0
    2.9617   -8.7520   16.1966 C   0  0  0  0  0  0  0  0  0  0  0  0
    5.8841   -6.9578   14.9768 C   0  0  0  0  0  0  0  0  0  0  0  0
    2.3866  -10.0592   17.5140 C   0  0  0  0  0  0  0  0  0  0  0  0
    5.2875   -7.1066   15.3940 C   0  0  0  0  0  0  0  0  0  0  0  0
    2.0804   -9.1601   16.4535 C   0  0  0  0  0  0  0  0  0  0  0  0
    4.3120   -9.7718   17.6080 C   0  0  0  0  0  0  0  0  0  0  0  0
    8.8477   -5.6688   16.7846 C   0  0  0  0  0  0  0  0  0  0  0  0
    3.9780  -10.5665   18.3043 C   0  0  0  0  0  0  0  0  0  0  0  0
   11.0228   -3.1684   20.2666 C   0  0  0  0  0  0  0  0  0  0  0  0
    9.0113   -4.3035   15.9905 C   0  0  0  0  0  0  0  0  0  0  0  0
    9.9736   -6.9755   19.1304 C   0  0  0  0  0  0  0  0  0  0  0  0
   10.7358   -3.5145   18.7227 N   0  0  0  0  0  0  0  0  0  0  0  0
   10.9179   -2.2580   22.8466 C   0  0  0  0  0  0  0  0  0  0  0  0
    5.3030   -8.5971   16.4200 C   0  0  0  0  0  0  0  0  0  0  0  0
    9.8718   -3.5793   16.3729 C   0  0  0  0  0  0  0  0  0  0  0  0
   10.9254   -3.3206   21.7386 C   0  0  0  0  0  0  0  0  0  0  0  0
    2.0010  -10.6691   18.0931 C   0  0  0  0  0  0  0  0  0  0  0  0
   10.6647   -5.0753   20.5617 C   0  0  0  0  0  0  0  0  0  0  0  0
    9.6219   -7.4048   18.5530 C   0  0  0  0  0  0  0  0  0  0  0  0
   10.8405   -4.7524   22.5974 C   0  0  0  0  0  0  0  0  0  0  0  0
   10.5482   -3.3428   17.5455 C   0  0  0  0  0  0  0  0  0  0  0  0
   10.5342   -4.8779   19.7471 C   0  0  0  0  0  0  0  0  0  0  0  0
    7.6131   -8.2764   17.6810 C   0  0  0  0  0  0  0  0  0  0  0  0
    6.0367   -8.4218   15.4215 C   0  0  0  0  0  0  0  0  0  0  0  0
  1 10  1  0
  1 33  1  0
  2  8  4  0
  2 23  4  0
  3  9  4  0
  3 32  4  0
  4 14  4  0
  5 27  4  0
  8 30  4  0
  9 17  4  0
 11 15  4  0
 12 14  4  0
 13 15  4  0
 16 18  4  0
 17 20  4  0
 19 26  4  0
 20 25  4  0
 21 29  4  0
 22 31  4  0
 23 26  4  0
 25 31  4  0
 26 30  4  0
 28 30  4  0
 28 32  4  0
M  END
$$$$

 Created by Python create_sdf_string function

 34 75  0  0  0  0  0  0  0  0999 V2000
    7.5984   -7.7291   17.7582 I   0  0  0  0  0  0  0  0  0  0  0  0
   10.6799   -3.0271   23.5520 C   0  0  0  0  0  0  0  0  0  0  0  0
    9.4317   -5.6985   18.5360 C   0  0  0  0  0  0  0  0  0  0  0  0
    2.3250  -10.5400   17.7842 C   0  0  0  0  0  0  0  0  0  0  0  0
    8.0618   -7.5138   15.1788 F   0  0  0  0  0  0  0  0  0  0  0  0
    5.1349   -8.1766   17.7549 I   0  0  0  0  0  0  0  0  0  0  0  0
   11.2365   -4.1034   23.8732 C   0  0  0  0  0  0  0  0  0  0  0  0
    8.8969   -6.1061   19.2331 C   0  0  0  0  0  0  0  0  0  0  0  0
    7.2435  -10.2343   14.8476 Se  0  0  0  0  0  0  0  0  0  0  0  0
    5.0368   -6.4742   16.6012 F   0  0  0  0  0  0  0  0  0  0  0  0
    9.8605   -5.7103   16.7937 O   0  0  0  0  0  0  0  0  0  0  0  0
   10.7640   -2.7783   19.9337 C   0  0  0  0  0  0  0  0  0  0  0  0
    8.9330   -4.0589   16.4377 C   0  0  0  0  0  0  0  0  0  0  0  0
   10.4651   -7.0429   20.6770 C   0  0  0  0  0  0  0  0  0  0  0  0
   10.7931   -3.2146   18.7554 N   0  0  0  0  0  0  0  0  0  0  0  0
   10.6274   -2.3611   22.8305 C   0  0  0  0  0  0  0  0  0  0  0  0
   10.0988   -3.0090   16.8127 C   0  0  0  0  0  0  0  0  0  0  0  0
   10.7076   -3.1149   21.6651 C   0  0  0  0  0  0  0  0  0  0  0  0
   10.1901   -4.8503   19.9520 C   0  0  0  0  0  0  0  0  0  0  0  0
    9.7491   -7.5476   19.0868 C   0  0  0  0  0  0  0  0  0  0  0  0
   11.3629   -5.6119   22.4182 C   0  0  0  0  0  0  0  0  0  0  0  0
   11.2120   -4.5322   19.8763 C   0  0  0  0  0  0  0  0  0  0  0  0
    4.4642   -7.5710   16.7218 He  0  0  0  0  0  0  0  0  0  0  0  0
    2.5989   -8.3881   15.0209 He  0  0  0  0  0  0  0  0  0  0  0  0
    6.6913   -8.8934   15.7272 He  0  0  0  0  0  0  0  0  0  0  0  0
    2.0104  -10.4058   17.2062 He  0  0  0  0  0  0  0  0  0  0  0  0
    3.0513  -11.5198   16.0478 He  0  0  0  0  0  0  0  0  0  0  0  0
    6.1103  -10.2139   17.9588 He  0  0  0  0  0  0  0  0  0  0  0  0
    3.3264  -10.6247   18.2265 He  0  0  0  0  0  0  0  0  0  0  0  0
    6.5780   -7.7289   15.5975 He  0  0  0  0  0  0  0  0  0  0  0  0
    1.9227  -10.7122   18.6139 He  0  0  0  0  0  0  0  0  0  0  0  0
   10.7046   -3.6201   17.6882 He  0  0  0  0  0  0  0  0  0  0  0  0
    6.7836   -8.0040   18.5336 He  0  0  0  0  0  0  0  0  0  0  0  0
    3.9364   -9.1638   15.0024 He  0  0  0  0  0  0  0  0  0  0  0  0
  1  2  3  0
  1  5  2  0
  1  6  1  0
  1 10  1  0
  1 12  2  0
  1 13  1  0
  1 14  3  0
  1 15  1  0
  1 16  2  0
  1 17  4  0
  1 18  1  0
  1 19  4  0
  1 21  2  0
  2  3  1  0
  2  4  4  0
  2  6  1  0
  2  7  4  0
  2 12  2  0
  2 13  3  0
  2 16  4  0
  2 18  3  0
  2 19  4  0
  2 21  3  0
  3  4  1  0
  3 14  1  0
  3 22  4  0
  4 12  4  0
  4 22  3  0
  5  9  3  0
  5 11  3  0
  5 15  4  0
  5 17  4  0
  6 12  2  0
  6 14  3  0
  6 19  2  0
  6 21  4  0
  7  9  1  0
  7 10  3  0
  7 11  4  0
  7 13  3  0
  7 21  4  0
  8 12  2  0
  8 13  3  0
  8 16  1  0
  9 11  2  0
  9 12  4  0
  9 16  1  0
  9 17  1  0
  9 18  3  0
  9 20  1  0
  9 21  3  0
  9 22  4  0
 10 19  1  0
 10 20  2  0
 10 21  4  0
 11 14  3  0
 11 18  1  0
 11 20  3  0
 11 22  3  0
 12 17  1  0
 12 18  4  0
 13 14  1  0
 13 17  3  0
 13 22  4  0
 14 15  1  0
 14 16  4  0
 14 17  4  0
 14 19  3  0
 14 22  1  0
 15 21  1  0
 16 21  1  0
 18 21  4  0
 18 22  4  0
 19 21  4  0
 19 22  4  0
M  END
$$$$

 Created by Python create_sdf_string function

 34 21  0  0  0  0  0  0  0  0999 V2000
    7.6849   -7.6366   17.5311 C   0  0  0  0  0  0  0  0  0  0  0  0
   10.7731   -3.0803   23.8767 C   0  0  0  0  0  0  0  0  0  0  0  0
    9.7006   -5.6538   18.2128 C   0  0  0  0  0  0  0  0  0  0  0  0
    4.6303   -8.3231   16.6165 C   0  0  0  0  0  0  0  0  0  0  0  0
    2.0530  -10.3412   17.7503 C   0  0  0  0  0  0  0  0  0  0  0  0
    8.1841   -7.5388   15.2491 C   0  0  0  0  0  0  0  0  0  0  0  0
    5.3261   -8.5407   17.4303 C   0  0  0  0  0  0  0  0  0  0  0  0
   11.0708   -4.3708   23.7705 C   0  0  0  0  0  0  0  0  0  0  0  0
    9.1688   -6.4258   18.3796 C   0  0  0  0  0  0  0  0  0  0  0  0
    7.0128   -9.4816   14.9892 O   0  0  0  0  0  0  0  0  0  0  0  0
    2.8232   -8.8309   15.8935 C   0  0  0  0  0  0  0  0  0  0  0  0
    6.6126   -8.8608   15.7346 C   0  0  0  0  0  0  0  0  0  0  0  0
    1.8405   -9.9495   17.2191 C   0  0  0  0  0  0  0  0  0  0  0  0
    5.5140   -7.3513   16.2806 C   0  0  0  0  0  0  0  0  0  0  0  0
    2.7941   -9.9741   17.3158 C   0  0  0  0  0  0  0  0  0  0  0  0
    5.3640   -9.6844   17.6271 C   0  0  0  0  0  0  0  0  0  0  0  0
    9.2421   -5.3666   16.9260 C   0  0  0  0  0  0  0  0  0  0  0  0
    3.5452  -10.5876   18.1945 C   0  0  0  0  0  0  0  0  0  0  0  0
   10.9781   -2.9258   20.2674 C   0  0  0  0  0  0  0  0  0  0  0  0
    9.2442   -4.2749   16.1542 C   0  0  0  0  0  0  0  0  0  0  0  0
   10.2245   -6.4594   19.8227 C   0  0  0  0  0  0  0  0  0  0  0  0
   10.9926   -3.0214   18.7376 N   0  0  0  0  0  0  0  0  0  0  0  0
   10.7068   -2.3900   22.7151 C   0  0  0  0  0  0  0  0  0  0  0  0
    6.8938   -7.7857   15.9222 C   0  0  0  0  0  0  0  0  0  0  0  0
   10.2847   -3.3852   16.7051 C   0  0  0  0  0  0  0  0  0  0  0  0
   10.9311   -3.1682   21.6312 C   0  0  0  0  0  0  0  0  0  0  0  0
    1.7451  -10.9409   18.4776 C   0  0  0  0  0  0  0  0  0  0  0  0
   10.7143   -4.9879   20.1253 C   0  0  0  0  0  0  0  0  0  0  0  0
    9.3540   -7.7587   18.6568 C   0  0  0  0  0  0  0  0  0  0  0  0
   11.1469   -4.8967   22.4763 C   0  0  0  0  0  0  0  0  0  0  0  0
   10.5687   -3.5884   17.9436 C   0  0  0  0  0  0  0  0  0  0  0  0
   10.6786   -4.5357   19.7193 C   0  0  0  0  0  0  0  0  0  0  0  0
    7.1826   -7.8821   17.9381 C   0  0  0  0  0  0  0  0  0  0  0  0
    3.7128   -8.8508   15.6665 C   0  0  0  0  0  0  0  0  0  0  0  0
  1 33  1  0
  2  8  4  0
  2 23  4  0
  3  9  4  0
  3 17  4  0
  4  7  4  0
  5 13  4  0
  5 27  4  0
  6 24  1  0
  8 30  4  0
 10 12  1  0
 11 34  4  0
 15 18  4  0
 17 20  4  0
 19 22  4  0
 19 26  4  0
 20 25  4  0
 22 31  4  0
 23 26  4  0
 25 31  4  0
 28 32  4  0
M  END
$$$$

 Created by Python create_sdf_string function

 34 79  0  0  0  0  0  0  0  0999 V2000
   10.0922   -5.1912   18.2430 C   0  0  0  0  0  0  0  0  0  0  0  0
    4.0760   -8.9457   15.9022 S   0  0  0  0  0  0  0  0  0  0  0  0
    2.0539  -10.7265   17.5949 C   0  0  0  0  0  0  0  0  0  0  0  0
    8.0681   -7.3483   15.4033 C   0  0  0  0  0  0  0  0  0  0  0  0
    4.8255   -8.5328   16.3368 N   0  0  0  0  0  0  0  0  0  0  0  0
   11.8113   -3.4234   23.7529 C   0  0  0  0  0  0  0  0  0  0  0  0
    5.1851   -9.0131   15.9711 P   0  0  0  0  0  0  0  0  0  0  0  0
    7.6697   -6.6143   17.3076 I   0  0  0  0  0  0  0  0  0  0  0  0
    4.8205   -7.4749   16.6200 N   0  0  0  0  0  0  0  0  0  0  0  0
    3.6686  -10.2752   18.1387 C   0  0  0  0  0  0  0  0  0  0  0  0
   11.0544   -2.9924   20.4950 C   0  0  0  0  0  0  0  0  0  0  0  0
    8.9944   -3.7218   15.3771 C   0  0  0  0  0  0  0  0  0  0  0  0
   10.1267   -3.4625   18.3475 N   0  0  0  0  0  0  0  0  0  0  0  0
   10.7198   -2.5495   22.0295 C   0  0  0  0  0  0  0  0  0  0  0  0
    6.0413   -8.0819   17.8845 C   0  0  0  0  0  0  0  0  0  0  0  0
    9.9079   -3.2300   16.8080 C   0  0  0  0  0  0  0  0  0  0  0  0
   11.0424   -3.1638   21.3425 C   0  0  0  0  0  0  0  0  0  0  0  0
    1.4599  -10.5953   18.5804 C   0  0  0  0  0  0  0  0  0  0  0  0
   10.9070   -4.9727   19.7857 C   0  0  0  0  0  0  0  0  0  0  0  0
    9.9701   -8.4390   18.9470 C   0  0  0  0  0  0  0  0  0  0  0  0
   10.7477   -5.0810   22.5639 C   0  0  0  0  0  0  0  0  0  0  0  0
   10.2529   -3.2931   17.8814 C   0  0  0  0  0  0  0  0  0  0  0  0
   10.8585   -4.6037   19.5879 C   0  0  0  0  0  0  0  0  0  0  0  0
    6.3796   -8.5580   17.1845 N   0  0  0  0  0  0  0  0  0  0  0  0
    8.3364   -7.0113   18.0448 He  0  0  0  0  0  0  0  0  0  0  0  0
   10.7187   -2.9600   23.4153 He  0  0  0  0  0  0  0  0  0  0  0  0
   10.8538   -7.0979   19.0140 He  0  0  0  0  0  0  0  0  0  0  0  0
    6.9920  -10.2150   14.4797 He  0  0  0  0  0  0  0  0  0  0  0  0
    1.2911   -9.9630   16.9833 He  0  0  0  0  0  0  0  0  0  0  0  0
    2.4883   -8.4988   16.3062 He  0  0  0  0  0  0  0  0  0  0  0  0
    4.2793  -10.1595   18.3917 He  0  0  0  0  0  0  0  0  0  0  0  0
    8.1294   -6.0945   17.5168 He  0  0  0  0  0  0  0  0  0  0  0  0
    8.8757   -7.1078   19.6666 He  0  0  0  0  0  0  0  0  0  0  0  0
    3.5733   -8.1715   15.7144 He  0  0  0  0  0  0  0  0  0  0  0  0
  1  7  3  0
  1  9  2  0
  1 11  3  0
  1 21  1  0
  1 22  1  0
  2  4  1  0
  2 11  1  0
  2 13  4  0
  2 14  1  0
  2 17  3  0
  2 18  3  0
  3  5  3  0
  3  7  2  0
  3  8  1  0
  3  9  1  0
  3 18  4  0
  3 20  3  0
  3 24  2  0
  4  8  2  0
  4 13  2  0
  4 18  3  0
  4 23  3  0
  4 24  3  0
  5  6  3  0
  5  7  3  0
  5  8  1  0
  5  9  3  0
  5 17  4  0
  5 18  3  0
  5 24  1  0
  6  8  2  0
  6 14  3  0
  6 18  1  0
  6 21  4  0
  6 23  2  0
  6 24  3  0
  7 13  2  0
  7 15  2  0
  7 16  2  0
  7 18  2  0
  7 19  2  0
  7 20  4  0
  7 21  1  0
  8 15  1  0
  8 16  2  0
  8 18  3  0
  8 21  3  0
  8 23  3  0
  9 14  3  0
  9 17  3  0
  9 18  2  0
  9 20  2  0
  9 24  3  0
 10 14  1  0
 10 24  2  0
 11 13  4  0
 11 24  2  0
 12 15  1  0
 12 16  4  0
 12 18  1  0
 12 24  3  0
 13 15  4  0
 13 17  3  0
 13 22  4  0
 14 15  4  0
 14 16  3  0
 14 17  4  0
 15 17  3  0
 15 19  4  0
 16 18  3  0
 16 22  3  0
 17 18  2  0
 17 22  3  0
 17 24  3  0
 19 23  4  0
 20 23  1  0
 20 24  1  0
 21 23  2  0
 21 24  4  0
M  END
$$$$

 Created by Python create_sdf_string function

 34 19  0  0  0  0  0  0  0  0999 V2000
    8.5631   -7.1900   17.8385 C   0  0  0  0  0  0  0  0  0  0  0  0
   10.9043   -2.8407   23.6905 N   0  0  0  0  0  0  0  0  0  0  0  0
    9.9094   -5.0459   18.0782 C   0  0  0  0  0  0  0  0  0  0  0  0
    3.6242   -8.8535   16.1407 C   0  0  0  0  0  0  0  0  0  0  0  0
    1.8471  -10.6954   18.1988 C   0  0  0  0  0  0  0  0  0  0  0  0
    8.0230   -7.5572   15.4456 C   0  0  0  0  0  0  0  0  0  0  0  0
    5.2904   -8.5218   16.3307 C   0  0  0  0  0  0  0  0  0  0  0  0
   11.1608   -3.9903   23.6673 C   0  0  0  0  0  0  0  0  0  0  0  0
   10.1550   -6.7079   18.9190 C   0  0  0  0  0  0  0  0  0  0  0  0
    7.0012   -9.3818   15.0064 O   0  0  0  0  0  0  0  0  0  0  0  0
    5.8022   -8.9841   15.5645 C   0  0  0  0  0  0  0  0  0  0  0  0
    7.6566   -7.1724   16.9636 C   0  0  0  0  0  0  0  0  0  0  0  0
    1.4632   -9.8172   17.0830 C   0  0  0  0  0  0  0  0  0  0  0  0
    4.9945   -7.7306   16.5072 C   0  0  0  0  0  0  0  0  0  0  0  0
    2.4076   -9.2365   16.6124 C   0  0  0  0  0  0  0  0  0  0  0  0
    3.7861  -10.3725   18.1568 C   0  0  0  0  0  0  0  0  0  0  0  0
    8.7164   -5.4768   16.6423 C   0  0  0  0  0  0  0  0  0  0  0  0
    3.4942  -10.4278   18.1157 C   0  0  0  0  0  0  0  0  0  0  0  0
   10.8937   -3.2729   20.1779 C   0  0  0  0  0  0  0  0  0  0  0  0
    8.9992   -3.8100   15.7889 C   0  0  0  0  0  0  0  0  0  0  0  0
    9.2447   -6.9271   18.4053 C   0  0  0  0  0  0  0  0  0  0  0  0
   10.7214   -3.1217   18.8296 N   0  0  0  0  0  0  0  0  0  0  0  0
   10.8732   -2.2937   22.3485 C   0  0  0  0  0  0  0  0  0  0  0  0
    6.4240   -8.0089   17.6272 C   0  0  0  0  0  0  0  0  0  0  0  0
    9.9102   -3.2550   16.5998 C   0  0  0  0  0  0  0  0  0  0  0  0
   11.0022   -2.9923   21.4477 C   0  0  0  0  0  0  0  0  0  0  0  0
    1.4579  -10.9409   18.3664 C   0  0  0  0  0  0  0  0  0  0  0  0
   10.7505   -5.3975   19.6609 C   0  0  0  0  0  0  0  0  0  0  0  0
    9.6736   -8.2040   18.6470 C   0  0  0  0  0  0  0  0  0  0  0  0
   11.2878   -4.6794   22.5926 C   0  0  0  0  0  0  0  0  0  0  0  0
   10.2291   -3.6988   17.8801 C   0  0  0  0  0  0  0  0  0  0  0  0
   10.8080   -4.7241   20.0296 C   0  0  0  0  0  0  0  0  0  0  0  0
    6.5790   -8.2455   17.0239 C   0  0  0  0  0  0  0  0  0  0  0  0
    3.3598   -8.5234   15.9077 C   0  0  0  0  0  0  0  0  0  0  0  0
  2  8  4  0
  2 23  4  0
  3 28  4  0
  3 31  4  0
  4 34  1  0
  5 27  4  0
  8 30  4  0
 10 11  1  0
 13 15  4  0
 16 18  4  0
 17 20  4  0
 19 22  4  0
 19 26  4  0
 19 32  4  0
 20 25  4  0
 22 31  4  0
 23 26  4  0
 25 31  4  0
 28 32  4  0
M  END
$$$$

 Created by Python create_sdf_string function

 34111  0  0  0  0  0  0  0  0999 V2000
   11.0969   -4.0640   23.4463 N   0  0  0  0  0  0  0  0  0  0  0  0
    9.7624   -4.7280   18.2186 C   0  0  0  0  0  0  0  0  0  0  0  0
    2.2651   -8.7122   15.2752 F   0  0  0  0  0  0  0  0  0  0  0  0
    1.8531  -10.9142   18.4883 C   0  0  0  0  0  0  0  0  0  0  0  0
    7.9992   -7.6169   15.6049 C   0  0  0  0  0  0  0  0  0  0  0  0
   11.1079   -3.7808   23.5516 C   0  0  0  0  0  0  0  0  0  0  0  0
   10.8111   -5.9366   18.2083 N   0  0  0  0  0  0  0  0  0  0  0  0
    8.2036   -9.3274   15.3015 F   0  0  0  0  0  0  0  0  0  0  0  0
    6.2392   -7.8405   15.0745 O   0  0  0  0  0  0  0  0  0  0  0  0
    9.7638   -7.5442   17.8194 S   0  0  0  0  0  0  0  0  0  0  0  0
    1.0531   -9.1896   17.4721 C   0  0  0  0  0  0  0  0  0  0  0  0
    5.4307   -6.9770   17.8232 Cl  0  0  0  0  0  0  0  0  0  0  0  0
    1.0608  -10.4895   16.5362 C   0  0  0  0  0  0  0  0  0  0  0  0
    3.6338  -11.3156   17.5022 O   0  0  0  0  0  0  0  0  0  0  0  0
    8.8346   -5.8193   17.0579 B   0  0  0  0  0  0  0  0  0  0  0  0
    3.4358  -10.4706   18.1717 C   0  0  0  0  0  0  0  0  0  0  0  0
   11.0813   -3.6478   20.0349 C   0  0  0  0  0  0  0  0  0  0  0  0
    8.7049   -3.6010   15.9135 O   0  0  0  0  0  0  0  0  0  0  0  0
   10.3792   -7.5116   17.7033 F   0  0  0  0  0  0  0  0  0  0  0  0
   11.2579   -2.9225   19.3978 F   0  0  0  0  0  0  0  0  0  0  0  0
   11.0773   -2.3714   22.2829 C   0  0  0  0  0  0  0  0  0  0  0  0
   10.3993   -3.6312   16.8778 F   0  0  0  0  0  0  0  0  0  0  0  0
   10.8601   -2.7562   21.8582 C   0  0  0  0  0  0  0  0  0  0  0  0
   11.0574   -5.3614   19.8455 C   0  0  0  0  0  0  0  0  0  0  0  0
    9.7972   -7.6795   19.0529 C   0  0  0  0  0  0  0  0  0  0  0  0
    9.9037   -3.4189   17.1448 C   0  0  0  0  0  0  0  0  0  0  0  0
   10.5984   -4.9544   20.0194 C   0  0  0  0  0  0  0  0  0  0  0  0
    3.9259   -7.9400   15.8710 O   0  0  0  0  0  0  0  0  0  0  0  0
    8.4785   -7.3586   19.1632 He  0  0  0  0  0  0  0  0  0  0  0  0
    4.3328   -7.6808   16.4460 He  0  0  0  0  0  0  0  0  0  0  0  0
    5.1901   -8.5720   17.3313 He  0  0  0  0  0  0  0  0  0  0  0  0
    0.9659  -11.5737   18.2400 He  0  0  0  0  0  0  0  0  0  0  0  0
   11.2537   -4.7318   22.7202 He  0  0  0  0  0  0  0  0  0  0  0  0
    7.2143   -6.5323   17.3371 He  0  0  0  0  0  0  0  0  0  0  0  0
  1  6  4  0
  1 12  3  0
  1 13  2  0
  1 14  4  0
  1 17  1  0
  1 19  4  0
  1 21  4  0
  2  8  3  0
  2 12  2  0
  3  4  3  0
  3  8  4  0
  3 12  4  0
  3 13  4  0
  3 14  4  0
  3 16  4  0
  3 18  4  0
  3 19  3  0
  3 20  4  0
  3 23  1  0
  3 24  1  0
  3 27  4  0
  3 28  1  0
  4  9  2  0
  4 14  4  0
  4 16  2  0
  5  8  3  0
  5 10  2  0
  5 15  1  0
  5 21  2  0
  6  8  2  0
  6 12  2  0
  6 19  3  0
  6 23  4  0
  6 26  3  0
  6 27  3  0
  7  8  4  0
  7  9  3  0
  7 10  1  0
  7 11  3  0
  7 13  1  0
  7 16  4  0
  7 17  1  0
  7 18  3  0
  7 22  1  0
  7 24  2  0
  7 26  4  0
  7 27  3  0
  8  9  4  0
  8 10  3  0
  8 17  4  0
  8 22  1  0
  8 26  2  0
  8 27  1  0
  8 28  1  0
  9 12  3  0
  9 16  2  0
  9 19  4  0
  9 22  1  0
  9 23  3  0
 10 14  2  0
 10 15  2  0
 10 16  1  0
 10 18  1  0
 10 21  1  0
 10 22  3  0
 10 28  4  0
 11 13  4  0
 11 15  1  0
 11 19  2  0
 11 21  1  0
 11 23  4  0
 11 26  1  0
 11 28  3  0
 12 13  3  0
 12 15  3  0
 12 16  4  0
 12 21  1  0
 12 25  3  0
 13 16  4  0
 13 19  2  0
 13 26  3  0
 13 27  1  0
 14 15  2  0
 14 26  3  0
 15 17  2  0
 15 19  3  0
 15 20  1  0
 15 22  4  0
 15 23  1  0
 15 27  3  0
 16 19  3  0
 17 18  4  0
 17 19  2  0
 17 20  4  0
 17 23  1  0
 17 27  4  0
 18 22  4  0
 19 22  2  0
 19 25  4  0
 19 27  1  0
 19 28  4  0
 20 26  4  0
 20 27  4  0
 20 28  3  0
 21 23  4  0
 22 26  4  0
 22 27  4  0
 23 26  1  0
 23 27  2  0
 24 27  4  0
 25 28  4  0
M  END
$$$$

 Created by Python create_sdf_string function

 34 26  0  0  0  0  0  0  0  0999 V2000
    8.4904   -7.6257   18.3468 C   0  0  0  0  0  0  0  0  0  0  0  0
   10.9244   -3.5014   23.8749 N   0  0  0  0  0  0  0  0  0  0  0  0
   10.0891   -5.0252   18.1965 C   0  0  0  0  0  0  0  0  0  0  0  0
    2.5760   -8.9570   16.1414 C   0  0  0  0  0  0  0  0  0  0  0  0
    2.0934  -11.1987   18.6937 C   0  0  0  0  0  0  0  0  0  0  0  0
    7.8877   -7.7519   15.6945 C   0  0  0  0  0  0  0  0  0  0  0  0
    4.2635   -8.4820   16.5340 C   0  0  0  0  0  0  0  0  0  0  0  0
   11.0217   -4.2125   23.5335 C   0  0  0  0  0  0  0  0  0  0  0  0
    9.9350   -5.6808   18.2079 N   0  0  0  0  0  0  0  0  0  0  0  0
    7.6924   -8.4026   15.5563 C   0  0  0  0  0  0  0  0  0  0  0  0
    6.1156   -8.0939   15.6150 C   0  0  0  0  0  0  0  0  0  0  0  0
    9.2313   -7.5082   17.6665 C   0  0  0  0  0  0  0  0  0  0  0  0
    1.3038  -10.2077   17.3438 C   0  0  0  0  0  0  0  0  0  0  0  0
    5.8530   -7.6624   17.7583 C   0  0  0  0  0  0  0  0  0  0  0  0
    1.1702  -10.1848   17.2481 C   0  0  0  0  0  0  0  0  0  0  0  0
    3.1907  -10.6501   18.3074 C   0  0  0  0  0  0  0  0  0  0  0  0
    8.7782   -5.2200   16.5067 C   0  0  0  0  0  0  0  0  0  0  0  0
    3.2583  -10.0115   17.7375 C   0  0  0  0  0  0  0  0  0  0  0  0
   11.0453   -3.4176   20.2737 C   0  0  0  0  0  0  0  0  0  0  0  0
    9.0670   -3.9441   15.9076 C   0  0  0  0  0  0  0  0  0  0  0  0
    9.8195   -7.6430   17.9478 C   0  0  0  0  0  0  0  0  0  0  0  0
   10.9473   -3.0018   19.0966 C   0  0  0  0  0  0  0  0  0  0  0  0
   11.0176   -2.4965   22.4177 C   0  0  0  0  0  0  0  0  0  0  0  0
    5.1254   -8.3792   17.0455 C   0  0  0  0  0  0  0  0  0  0  0  0
   10.0356   -3.4758   16.5425 N   0  0  0  0  0  0  0  0  0  0  0  0
   11.1001   -3.0077   21.6313 C   0  0  0  0  0  0  0  0  0  0  0  0
    0.8006  -11.3467   18.5463 C   0  0  0  0  0  0  0  0  0  0  0  0
   10.6334   -5.5294   19.7409 C   0  0  0  0  0  0  0  0  0  0  0  0
    9.7532   -7.8964   18.7472 C   0  0  0  0  0  0  0  0  0  0  0  0
   11.1721   -4.9578   22.6449 C   0  0  0  0  0  0  0  0  0  0  0  0
   10.4315   -3.4682   17.7350 C   0  0  0  0  0  0  0  0  0  0  0  0
   10.8737   -4.8189   20.4733 C   0  0  0  0  0  0  0  0  0  0  0  0
    7.1493   -7.0953   17.2143 C   0  0  0  0  0  0  0  0  0  0  0  0
    3.6572   -8.2921   16.0584 C   0  0  0  0  0  0  0  0  0  0  0  0
  2  8  4  0
  2 23  4  0
  3  9  4  0
  3 28  4  0
  3 31  4  0
  4 34  1  0
  5 16  4  0
  5 27  4  0
  6 10  4  0
  7 24  1  0
  7 34  1  0
  8 30  4  0
 13 15  4  0
 14 24  4  0
 14 33  4  0
 16 18  4  0
 17 20  4  0
 19 22  4  0
 19 26  1  0
 19 32  4  0
 20 25  4  0
 21 29  1  0
 22 31  4  0
 23 26  4  0
 25 31  4  0
 28 32  4  0
M  END
$$$$

 Created by Python create_sdf_string function

 34 79  0  0  0  0  0  0  0  0999 V2000
   10.1633   -4.5764   17.7141 C   0  0  0  0  0  0  0  0  0  0  0  0
    2.7948   -9.5256   15.4096 C   0  0  0  0  0  0  0  0  0  0  0  0
    7.1524   -7.8698   15.5813 N   0  0  0  0  0  0  0  0  0  0  0  0
    3.8922   -7.9450   16.3384 O   0  0  0  0  0  0  0  0  0  0  0  0
   11.0859   -3.9654   23.5885 C   0  0  0  0  0  0  0  0  0  0  0  0
   10.7840   -6.2096   15.9684 N   0  0  0  0  0  0  0  0  0  0  0  0
    8.0947   -9.8284   15.1958 S   0  0  0  0  0  0  0  0  0  0  0  0
    6.2267   -7.0933   16.1442 S   0  0  0  0  0  0  0  0  0  0  0  0
    8.6936   -7.9657   17.7601 C   0  0  0  0  0  0  0  0  0  0  0  0
    0.6501  -10.3456   16.7293 F   0  0  0  0  0  0  0  0  0  0  0  0
    7.4867   -6.7237   15.1680 Cl  0  0  0  0  0  0  0  0  0  0  0  0
    3.2966  -10.5382   17.4404 C   0  0  0  0  0  0  0  0  0  0  0  0
    8.6237   -3.6162   15.7286 C   0  0  0  0  0  0  0  0  0  0  0  0
   10.7982   -3.1239   19.2441 C   0  0  0  0  0  0  0  0  0  0  0  0
   11.3802   -1.7331   22.1677 C   0  0  0  0  0  0  0  0  0  0  0  0
    9.8962   -3.3170   16.6025 N   0  0  0  0  0  0  0  0  0  0  0  0
   11.0324   -2.6269   21.1540 F   0  0  0  0  0  0  0  0  0  0  0  0
    0.5313  -11.4772   18.8272 C   0  0  0  0  0  0  0  0  0  0  0  0
   10.8049   -5.2686   20.1487 S   0  0  0  0  0  0  0  0  0  0  0  0
    9.4576   -7.7879   18.4026 C   0  0  0  0  0  0  0  0  0  0  0  0
   11.1536   -5.2806   22.2080 N   0  0  0  0  0  0  0  0  0  0  0  0
   10.2859   -3.0138   17.4330 C   0  0  0  0  0  0  0  0  0  0  0  0
   10.9058   -5.3168   20.9488 O   0  0  0  0  0  0  0  0  0  0  0  0
    2.7197   -8.5172   16.1779 C   0  0  0  0  0  0  0  0  0  0  0  0
    8.5683   -7.0494   17.3278 He  0  0  0  0  0  0  0  0  0  0  0  0
   11.2758   -3.7611   24.3936 He  0  0  0  0  0  0  0  0  0  0  0  0
    2.1739  -11.2679   18.5231 He  0  0  0  0  0  0  0  0  0  0  0  0
   -0.6910  -10.7759   19.2603 He  0  0  0  0  0  0  0  0  0  0  0  0
    6.2492   -5.3980   18.7934 He  0  0  0  0  0  0  0  0  0  0  0  0
    1.6291  -10.1448   18.7749 He  0  0  0  0  0  0  0  0  0  0  0  0
   11.0882   -4.0180   20.8111 He  0  0  0  0  0  0  0  0  0  0  0  0
    8.9220   -6.9180   19.7390 He  0  0  0  0  0  0  0  0  0  0  0  0
    4.0575   -7.6782   18.3231 He  0  0  0  0  0  0  0  0  0  0  0  0
    5.9953   -7.5203   16.7437 He  0  0  0  0  0  0  0  0  0  0  0  0
  1  2  2  0
  1  3  4  0
  1  5  1  0
  1  6  1  0
  1  9  3  0
  1 10  4  0
  1 11  1  0
  1 17  4  0
  1 19  3  0
  2  9  4  0
  2 11  1  0
  2 17  4  0
  2 19  4  0
  2 20  3  0
  2 21  4  0
  2 23  2  0
  3  8  1  0
  3 11  3  0
  4  9  2  0
  4 10  2  0
  4 14  3  0
  4 15  3  0
  4 16  2  0
  4 19  1  0
  4 22  1  0
  5  6  4  0
  5 11  1  0
  5 12  4  0
  6  7  3  0
  6 10  4  0
  6 11  3  0
  6 13  2  0
  6 18  2  0
  6 19  1  0
  6 22  3  0
  7  8  2  0
  7 10  2  0
  7 15  3  0
  7 16  4  0
  7 18  1  0
  7 19  4  0
  7 23  4  0
  7 24  2  0
  8  9  1  0
  8 12  1  0
  8 14  1  0
  8 16  2  0
  8 19  1  0
  8 20  1  0
  8 24  1  0
  9 11  1  0
  9 12  2  0
  9 14  4  0
  9 18  1  0
  9 19  1  0
  9 21  4  0
 10 11  4  0
 10 12  2  0
 10 15  3  0
 10 22  1  0
 10 23  3  0
 11 12  1  0
 11 13  4  0
 11 16  4  0
 11 23  3  0
 12 22  1  0
 13 15  2  0
 13 17  3  0
 14 22  4  0
 15 17  4  0
 16 18  3  0
 16 22  4  0
 16 24  3  0
 17 20  1  0
 18 21  2  0
 19 23  4  0
 19 24  2  0
 21 23  2  0
 22 24  2  0
M  END
$$$$

 Created by Python create_sdf_string function

 34 26  0  0  0  0  0  0  0  0999 V2000
    8.4834   -7.0003   17.0258 C   0  0  0  0  0  0  0  0  0  0  0  0
   11.1385   -3.0512   23.8562 N   0  0  0  0  0  0  0  0  0  0  0  0
   10.0398   -5.0043   17.7756 C   0  0  0  0  0  0  0  0  0  0  0  0
    2.5540   -9.1394   16.2976 C   0  0  0  0  0  0  0  0  0  0  0  0
    1.9202  -10.9531   18.5237 C   0  0  0  0  0  0  0  0  0  0  0  0
    7.1320   -7.8741   15.7035 N   0  0  0  0  0  0  0  0  0  0  0  0
    4.1852   -8.2967   16.3768 C   0  0  0  0  0  0  0  0  0  0  0  0
   11.0613   -4.1483   23.5540 C   0  0  0  0  0  0  0  0  0  0  0  0
    9.3851   -5.4877   16.7635 N   0  0  0  0  0  0  0  0  0  0  0  0
    7.8735   -8.6162   15.4187 C   0  0  0  0  0  0  0  0  0  0  0  0
    6.4646   -7.7091   16.6845 C   0  0  0  0  0  0  0  0  0  0  0  0
    8.4331   -7.9572   17.4641 C   0  0  0  0  0  0  0  0  0  0  0  0
    0.0779  -11.2040   18.5551 N   0  0  0  0  0  0  0  0  0  0  0  0
    6.4559   -7.0063   18.2137 O   0  0  0  0  0  0  0  0  0  0  0  0
    0.7100  -10.2510   17.3092 C   0  0  0  0  0  0  0  0  0  0  0  0
    1.9370  -10.7227   18.3251 C   0  0  0  0  0  0  0  0  0  0  0  0
    7.8779   -6.3599   15.7682 C   0  0  0  0  0  0  0  0  0  0  0  0
    2.7899  -10.0579   17.7434 C   0  0  0  0  0  0  0  0  0  0  0  0
   11.0176   -3.6155   20.5563 C   0  0  0  0  0  0  0  0  0  0  0  0
    9.1080   -3.9625   15.8299 C   0  0  0  0  0  0  0  0  0  0  0  0
   10.1133   -5.9551   18.8337 C   0  0  0  0  0  0  0  0  0  0  0  0
   10.9217   -3.1912   19.1821 C   0  0  0  0  0  0  0  0  0  0  0  0
   11.3171   -2.2085   22.4985 C   0  0  0  0  0  0  0  0  0  0  0  0
    4.5354   -8.4761   17.4743 C   0  0  0  0  0  0  0  0  0  0  0  0
    9.9448   -3.3073   16.5480 N   0  0  0  0  0  0  0  0  0  0  0  0
   11.2092   -2.8013   21.5387 C   0  0  0  0  0  0  0  0  0  0  0  0
    0.4293  -11.3936   18.8720 C   0  0  0  0  0  0  0  0  0  0  0  0
   10.5520   -5.8040   19.9190 C   0  0  0  0  0  0  0  0  0  0  0  0
    9.3882   -7.8358   18.1432 C   0  0  0  0  0  0  0  0  0  0  0  0
   10.9852   -4.9563   22.4813 N   0  0  0  0  0  0  0  0  0  0  0  0
   10.4171   -3.6855   17.9272 C   0  0  0  0  0  0  0  0  0  0  0  0
   10.8032   -4.8990   20.8699 C   0  0  0  0  0  0  0  0  0  0  0  0
    5.8346   -7.8012   17.0550 C   0  0  0  0  0  0  0  0  0  0  0  0
    3.3051   -8.9183   16.6456 C   0  0  0  0  0  0  0  0  0  0  0  0
  2  8  4  0
  2 23  4  0
  3  9  4  0
  3 21  4  0
  3 31  4  0
  4 34  4  0
  5 16  4  0
  6 10  1  0
  6 11  1  0
  8 30  4  0
 11 33  1  0
 12 29  1  0
 13 15  4  0
 13 27  4  0
 16 18  4  0
 19 22  4  0
 19 26  4  0
 19 32  4  0
 20 25  4  0
 21 28  4  0
 22 31  4  0
 23 26  4  0
 24 34  4  0
 25 31  4  0
 28 32  4  0
 30 32  4  0
M  END
$$$$

 Created by Python create_sdf_string function

 34 77  0  0  0  0  0  0  0  0999 V2000
   10.3520   -7.3835   16.8506 O   0  0  0  0  0  0  0  0  0  0  0  0
   10.6948   -3.7075   24.2066 N   0  0  0  0  0  0  0  0  0  0  0  0
   10.2959   -4.6441   18.3461 C   0  0  0  0  0  0  0  0  0  0  0  0
    2.1884  -10.4161   16.4585 C   0  0  0  0  0  0  0  0  0  0  0  0
    1.1966  -10.9332   18.8108 C   0  0  0  0  0  0  0  0  0  0  0  0
    6.4853   -7.6948   15.4856 N   0  0  0  0  0  0  0  0  0  0  0  0
    5.2651   -8.9045   15.8909 O   0  0  0  0  0  0  0  0  0  0  0  0
   11.2709   -4.1092   24.3503 C   0  0  0  0  0  0  0  0  0  0  0  0
    8.1418   -5.0617   16.1616 O   0  0  0  0  0  0  0  0  0  0  0  0
   -0.2785  -10.6960   18.9006 N   0  0  0  0  0  0  0  0  0  0  0  0
    0.5273  -11.2181   17.4590 O   0  0  0  0  0  0  0  0  0  0  0  0
    1.2410  -12.5670   18.4249 Cl  0  0  0  0  0  0  0  0  0  0  0  0
    2.5522  -10.6026   17.7798 Cl  0  0  0  0  0  0  0  0  0  0  0  0
    9.3077   -3.6100   15.9419 C   0  0  0  0  0  0  0  0  0  0  0  0
    6.6578   -8.0048   19.1439 N   0  0  0  0  0  0  0  0  0  0  0  0
   10.1235   -3.5294   16.5149 F   0  0  0  0  0  0  0  0  0  0  0  0
   10.6659   -3.0132   21.7564 C   0  0  0  0  0  0  0  0  0  0  0  0
    0.8494  -11.2484   18.9673 C   0  0  0  0  0  0  0  0  0  0  0  0
   10.4703   -6.0358   20.2554 C   0  0  0  0  0  0  0  0  0  0  0  0
    9.3825   -7.3012   18.1855 C   0  0  0  0  0  0  0  0  0  0  0  0
   11.1150   -4.6789   22.0794 N   0  0  0  0  0  0  0  0  0  0  0  0
   10.8076   -5.3791   21.4304 C   0  0  0  0  0  0  0  0  0  0  0  0
    2.5845   -9.1506   16.9182 C   0  0  0  0  0  0  0  0  0  0  0  0
   11.4509   -4.4135   16.8954 He  0  0  0  0  0  0  0  0  0  0  0  0
    7.0668   -7.3658   15.8451 He  0  0  0  0  0  0  0  0  0  0  0  0
    7.0494   -6.3081   17.1255 He  0  0  0  0  0  0  0  0  0  0  0  0
    8.1773   -6.4147   17.6514 He  0  0  0  0  0  0  0  0  0  0  0  0
    7.1810   -5.6700   15.8951 He  0  0  0  0  0  0  0  0  0  0  0  0
   11.5682   -3.5077   20.4801 He  0  0  0  0  0  0  0  0  0  0  0  0
    8.7244   -6.4308   19.7257 He  0  0  0  0  0  0  0  0  0  0  0  0
   11.5011   -3.2681   18.8105 He  0  0  0  0  0  0  0  0  0  0  0  0
   11.3348   -2.0462   22.8759 He  0  0  0  0  0  0  0  0  0  0  0  0
   10.4285   -3.8115   17.9598 He  0  0  0  0  0  0  0  0  0  0  0  0
    5.2593   -8.5748   18.5288 He  0  0  0  0  0  0  0  0  0  0  0  0
  1  3  3  0
  1  8  2  0
  1 15  1  0
  1 16  3  0
  1 20  1  0
  1 21  4  0
  2  7  3  0
  2  8  4  0
  2 10  1  0
  3  4  3  0
  3  8  1  0
  3 10  3  0
  3 11  2  0
  3 12  2  0
  3 18  1  0
  3 20  3  0
  4  6  2  0
  4 12  4  0
  4 15  4  0
  4 16  3  0
  4 18  1  0
  4 20  4  0
  4 21  3  0
  4 22  1  0
  4 23  1  0
  5  7  2  0
  5 10  4  0
  5 12  4  0
  5 16  2  0
  5 20  3  0
  5 23  4  0
  6 11  4  0
  6 15  2  0
  6 17  3  0
  6 23  2  0
  7  8  1  0
  7 10  2  0
  7 12  4  0
  7 13  1  0
  7 14  4  0
  7 17  2  0
  7 22  3  0
  8  9  2  0
  8 12  4  0
  8 15  3  0
  8 21  4  0
  9 12  4  0
  9 13  1  0
  9 15  2  0
  9 16  3  0
  9 17  1  0
  9 19  2  0
  9 20  4  0
  9 21  2  0
  9 22  4  0
 10 13  4  0
 10 14  4  0
 10 15  3  0
 10 20  4  0
 11 12  2  0
 11 19  4  0
 12 13  4  0
 12 22  1  0
 13 18  3  0
 13 23  3  0
 15 17  3  0
 15 20  3  0
 15 21  2  0
 15 22  2  0
 15 23  3  0
 16 22  4  0
 17 19  2  0
 17 23  1  0
 18 23  1  0
 19 22  4  0
 21 22  4  0
 22 23  3  0
M  END
$$$$

 Created by Python create_sdf_string function

 34 26  0  0  0  0  0  0  0  0999 V2000
    9.4311   -7.5252   17.4854 C   0  0  0  0  0  0  0  0  0  0  0  0
   10.9065   -3.3622   24.2044 N   0  0  0  0  0  0  0  0  0  0  0  0
   10.2807   -4.9250   18.2808 C   0  0  0  0  0  0  0  0  0  0  0  0
    2.3293   -9.6140   16.9338 C   0  0  0  0  0  0  0  0  0  0  0  0
    1.0480  -10.9270   18.5103 C   0  0  0  0  0  0  0  0  0  0  0  0
    6.0815   -7.9927   15.6119 C   0  0  0  0  0  0  0  0  0  0  0  0
    4.8678   -8.6841   16.2119 C   0  0  0  0  0  0  0  0  0  0  0  0
   11.0087   -4.5468   23.8865 C   0  0  0  0  0  0  0  0  0  0  0  0
   10.8281   -4.0336   17.0530 C   0  0  0  0  0  0  0  0  0  0  0  0
    6.7095   -7.6893   16.1675 C   0  0  0  0  0  0  0  0  0  0  0  0
    7.0579   -7.3521   17.1595 C   0  0  0  0  0  0  0  0  0  0  0  0
    8.2984   -5.2655   16.0982 O   0  0  0  0  0  0  0  0  0  0  0  0
   -0.0642  -10.9007   18.8462 N   0  0  0  0  0  0  0  0  0  0  0  0
    8.3245   -6.8251   17.5203 C   0  0  0  0  0  0  0  0  0  0  0  0
    0.6852  -10.4603   17.6348 C   0  0  0  0  0  0  0  0  0  0  0  0
    1.4749  -11.5784   18.7955 C   0  0  0  0  0  0  0  0  0  0  0  0
    7.6957   -6.0664   16.0272 C   0  0  0  0  0  0  0  0  0  0  0  0
    2.9954  -10.1072   17.5860 C   0  0  0  0  0  0  0  0  0  0  0  0
   11.0526   -3.5681   20.7098 C   0  0  0  0  0  0  0  0  0  0  0  0
    9.3726   -3.7185   15.8775 C   0  0  0  0  0  0  0  0  0  0  0  0
    9.8634   -6.2066   19.1473 C   0  0  0  0  0  0  0  0  0  0  0  0
   11.1034   -3.2657   19.2761 N   0  0  0  0  0  0  0  0  0  0  0  0
   10.9398   -2.5118   23.0131 C   0  0  0  0  0  0  0  0  0  0  0  0
    6.1426   -8.1256   18.1973 C   0  0  0  0  0  0  0  0  0  0  0  0
   10.1949   -3.5184   16.4210 C   0  0  0  0  0  0  0  0  0  0  0  0
   11.1807   -2.6161   21.8156 C   0  0  0  0  0  0  0  0  0  0  0  0
    0.8409  -11.0942   18.7025 C   0  0  0  0  0  0  0  0  0  0  0  0
   10.4826   -5.8203   20.2683 C   0  0  0  0  0  0  0  0  0  0  0  0
    9.3615   -7.3993   18.2409 C   0  0  0  0  0  0  0  0  0  0  0  0
   10.9983   -5.0468   22.5582 N   0  0  0  0  0  0  0  0  0  0  0  0
   10.6333   -3.9641   18.2008 C   0  0  0  0  0  0  0  0  0  0  0  0
   10.8183   -4.8378   21.1761 C   0  0  0  0  0  0  0  0  0  0  0  0
    5.3454   -8.6980   17.8505 C   0  0  0  0  0  0  0  0  0  0  0  0
    3.1035   -9.4918   17.0025 C   0  0  0  0  0  0  0  0  0  0  0  0
  1 29  1  0
  2  8  4  0
  2 23  4  0
  3 21  4  0
  3 31  4  0
  4 34  1  0
  5 13  4  0
  5 16  4  0
  6  7  4  0
  6 10  4  0
  8 30  4  0
 10 11  4  0
 11 24  4  0
 12 17  4  0
 13 27  4  0
 18 34  1  0
 19 22  4  0
 19 26  4  0
 19 32  4  0
 20 25  4  0
 21 28  4  0
 22 31  4  0
 23 26  4  0
 24 33  4  0
 28 32  4  0
 30 32  4  0
M  END
$$$$

 Created by Python create_sdf_string function

 34111  0  0  0  0  0  0  0  0999 V2000
    8.8064   -9.0624   17.0879 O   0  0  0  0  0  0  0  0  0  0  0  0
   11.0768   -3.7497   24.0210 N   0  0  0  0  0  0  0  0  0  0  0  0
   10.0300   -5.0190   18.1985 C   0  0  0  0  0  0  0  0  0  0  0  0
    2.9922   -9.2648   16.7900 Cl  0  0  0  0  0  0  0  0  0  0  0  0
    0.9452  -10.4145   18.3956 C   0  0  0  0  0  0  0  0  0  0  0  0
    6.1938   -8.0221   15.4134 C   0  0  0  0  0  0  0  0  0  0  0  0
    4.0809   -9.3793   14.0046 N   0  0  0  0  0  0  0  0  0  0  0  0
   10.3671   -4.0849   17.5380 C   0  0  0  0  0  0  0  0  0  0  0  0
    6.1679   -6.9488   16.4947 C   0  0  0  0  0  0  0  0  0  0  0  0
    0.2871  -10.9469   19.6577 N   0  0  0  0  0  0  0  0  0  0  0  0
    7.5819   -6.4278   17.4623 O   0  0  0  0  0  0  0  0  0  0  0  0
    6.9830   -6.2905   13.9988 O   0  0  0  0  0  0  0  0  0  0  0  0
    2.8466   -9.7036   17.8445 F   0  0  0  0  0  0  0  0  0  0  0  0
   11.1693   -4.0432   20.9814 C   0  0  0  0  0  0  0  0  0  0  0  0
    9.5519   -3.4934   16.1019 C   0  0  0  0  0  0  0  0  0  0  0  0
    7.7508   -6.4381   18.1139 Cl  0  0  0  0  0  0  0  0  0  0  0  0
   11.3623   -3.6365   18.9820 C   0  0  0  0  0  0  0  0  0  0  0  0
   10.7553   -2.6674   22.6658 C   0  0  0  0  0  0  0  0  0  0  0  0
    5.7877   -8.0034   18.9188 C   0  0  0  0  0  0  0  0  0  0  0  0
    9.7626   -3.2067   16.6660 N   0  0  0  0  0  0  0  0  0  0  0  0
   11.2331   -2.2457   21.5086 C   0  0  0  0  0  0  0  0  0  0  0  0
    0.8415  -10.9123   18.5931 C   0  0  0  0  0  0  0  0  0  0  0  0
    9.6005   -7.5059   18.2301 C   0  0  0  0  0  0  0  0  0  0  0  0
   11.1045   -4.6821   22.1068 N   0  0  0  0  0  0  0  0  0  0  0  0
   10.8297   -4.6666   20.8265 C   0  0  0  0  0  0  0  0  0  0  0  0
    5.9824   -9.2661   18.1938 Cl  0  0  0  0  0  0  0  0  0  0  0  0
    4.7103   -8.7277   16.7410 C   0  0  0  0  0  0  0  0  0  0  0  0
   11.6417   -4.2609   24.0692 He  0  0  0  0  0  0  0  0  0  0  0  0
    7.4669   -7.9259   17.0719 He  0  0  0  0  0  0  0  0  0  0  0  0
    9.2408   -4.1745   16.1580 He  0  0  0  0  0  0  0  0  0  0  0  0
   -0.0459   -8.9149   18.0978 He  0  0  0  0  0  0  0  0  0  0  0  0
    1.1712  -11.7828   19.6271 He  0  0  0  0  0  0  0  0  0  0  0  0
   10.4007   -5.2336   19.9791 He  0  0  0  0  0  0  0  0  0  0  0  0
   10.1257   -4.4304   17.9164 He  0  0  0  0  0  0  0  0  0  0  0  0
  1  2  3  0
  1  3  2  0
  1  6  4  0
  1 12  1  0
  1 15  1  0
  1 16  4  0
  1 19  3  0
  1 22  3  0
  1 23  2  0
  1 24  2  0
  1 25  3  0
  2  4  2  0
  2  9  4  0
  2 11  3  0
  2 12  2  0
  2 16  3  0
  2 18  4  0
  2 19  2  0
  2 23  4  0
  2 26  3  0
  2 27  4  0
  3  4  4  0
  3 10  1  0
  3 11  4  0
  3 15  1  0
  3 19  4  0
  3 27  4  0
  4 10  2  0
  4 14  3  0
  4 15  1  0
  4 16  3  0
  4 23  3  0
  4 25  4  0
  4 26  4  0
  4 27  1  0
  5  8  3  0
  5 10  1  0
  5 13  1  0
  5 20  3  0
  5 21  3  0
  5 23  4  0
  5 24  3  0
  6  9  2  0
  6 12  2  0
  6 22  4  0
  6 26  3  0
  6 27  3  0
  7  9  3  0
  7 10  1  0
  7 12  3  0
  7 13  2  0
  7 18  1  0
  7 22  4  0
  7 23  3  0
  7 27  2  0
  8 10  4  0
  8 15  1  0
  8 16  4  0
  8 19  1  0
  8 20  3  0
  8 25  2  0
  8 27  2  0
  9 10  2  0
  9 14  1  0
  9 18  3  0
  9 19  2  0
  9 21  4  0
  9 23  3  0
  9 24  4  0
  9 26  3  0
 10 12  3  0
 10 13  3  0
 10 14  2  0
 10 22  4  0
 10 24  4  0
 11 19  1  0
 11 26  2  0
 11 27  4  0
 12 13  4  0
 12 17  3  0
 12 19  3  0
 12 22  3  0
 13 24  2  0
 13 26  2  0
 13 27  1  0
 14 15  4  0
 14 21  4  0
 14 22  3  0
 14 23  1  0
 14 25  4  0
 15 16  2  0
 15 19  4  0
 15 20  4  0
 15 23  4  0
 16 17  3  0
 16 19  1  0
 16 24  2  0
 16 26  4  0
 17 21  2  0
 17 25  2  0
 17 26  2  0
 17 27  4  0
 18 21  4  0
 18 26  3  0
 18 27  2  0
 19 25  4  0
 21 26  3  0
 21 27  1  0
 22 26  3  0
 25 26  1  0
 26 27  4  0
M  END
$$$$

 Created by Python create_sdf_string function

 34 27  0  0  0  0  0  0  0  0999 V2000
    8.4682   -8.2360   16.9773 C   0  0  0  0  0  0  0  0  0  0  0  0
   11.0676   -3.3808   24.0945 N   0  0  0  0  0  0  0  0  0  0  0  0
    9.7973   -5.0901   17.9079 C   0  0  0  0  0  0  0  0  0  0  0  0
    3.0110   -9.2778   16.8083 C   0  0  0  0  0  0  0  0  0  0  0  0
    1.7856  -10.6374   18.3207 C   0  0  0  0  0  0  0  0  0  0  0  0
    5.9872   -7.9589   15.4834 C   0  0  0  0  0  0  0  0  0  0  0  0
    4.0081   -8.8013   15.5191 C   0  0  0  0  0  0  0  0  0  0  0  0
   11.2301   -4.5738   23.7915 C   0  0  0  0  0  0  0  0  0  0  0  0
   10.1092   -4.3643   17.7742 C   0  0  0  0  0  0  0  0  0  0  0  0
    6.1702   -7.7237   16.3880 C   0  0  0  0  0  0  0  0  0  0  0  0
    7.5165   -7.7506   17.0392 C   0  0  0  0  0  0  0  0  0  0  0  0
    8.9365   -4.5963   16.1474 N   0  0  0  0  0  0  0  0  0  0  0  0
    0.2813  -11.1526   19.1784 N   0  0  0  0  0  0  0  0  0  0  0  0
    7.9933   -6.6180   17.3116 C   0  0  0  0  0  0  0  0  0  0  0  0
    0.4766   -9.9619   17.7313 C   0  0  0  0  0  0  0  0  0  0  0  0
    1.5728  -11.3381   19.2279 C   0  0  0  0  0  0  0  0  0  0  0  0
    6.7315   -6.1624   15.0354 O   0  0  0  0  0  0  0  0  0  0  0  0
    2.5850   -9.9315   17.5363 C   0  0  0  0  0  0  0  0  0  0  0  0
   11.1171   -3.9990   21.3651 C   0  0  0  0  0  0  0  0  0  0  0  0
    9.5661   -3.6571   15.9057 C   0  0  0  0  0  0  0  0  0  0  0  0
    8.2869   -6.6914   17.6403 C   0  0  0  0  0  0  0  0  0  0  0  0
   11.2101   -3.4978   19.1620 C   0  0  0  0  0  0  0  0  0  0  0  0
   10.9868   -2.4345   23.1699 C   0  0  0  0  0  0  0  0  0  0  0  0
    6.0049   -8.2125   17.8926 C   0  0  0  0  0  0  0  0  0  0  0  0
   10.2938   -3.2305   16.4917 N   0  0  0  0  0  0  0  0  0  0  0  0
   11.1184   -2.6398   21.8220 C   0  0  0  0  0  0  0  0  0  0  0  0
    0.3519  -10.8169   18.5124 C   0  0  0  0  0  0  0  0  0  0  0  0
   10.4350   -5.5665   19.6880 C   0  0  0  0  0  0  0  0  0  0  0  0
    9.4522   -7.4776   18.2216 C   0  0  0  0  0  0  0  0  0  0  0  0
   11.2309   -5.0058   22.4474 N   0  0  0  0  0  0  0  0  0  0  0  0
   10.3603   -4.3821   18.1253 C   0  0  0  0  0  0  0  0  0  0  0  0
   10.9031   -4.6819   20.2334 C   0  0  0  0  0  0  0  0  0  0  0  0
    5.2108   -8.9772   17.8488 C   0  0  0  0  0  0  0  0  0  0  0  0
    4.0947   -9.0212   16.7591 C   0  0  0  0  0  0  0  0  0  0  0  0
  1 11  1  0
  2  8  4  0
  2 23  4  0
  3  9  4  0
  3 31  4  0
  4 18  1  0
  4 34  1  0
  5 16  4  0
  5 18  4  0
  6 10  1  0
  7 34  4  0
  8 30  4  0
  9 31  4  0
 12 20  4  0
 13 16  4  0
 13 27  4  0
 14 21  1  0
 15 27  4  0
 19 26  4  0
 19 30  4  0
 19 32  4  0
 20 25  4  0
 22 31  4  0
 23 26  4  0
 24 33  4  0
 28 32  4  0
 33 34  4  0
M  END
$$$$

 Created by Python create_sdf_string function

 34 90  0  0  0  0  0  0  0  0999 V2000
    9.4806   -8.9095   18.4691 N   0  0  0  0  0  0  0  0  0  0  0  0
   11.1427   -3.7304   24.1823 N   0  0  0  0  0  0  0  0  0  0  0  0
    9.4047   -4.9480   18.5421 C   0  0  0  0  0  0  0  0  0  0  0  0
    3.5768   -9.6579   16.1508 I   0  0  0  0  0  0  0  0  0  0  0  0
    1.5084  -10.6419   18.2505 C   0  0  0  0  0  0  0  0  0  0  0  0
    3.8317   -7.7567   15.4803 C   0  0  0  0  0  0  0  0  0  0  0  0
   11.1275   -4.7218   24.4476 S   0  0  0  0  0  0  0  0  0  0  0  0
    0.0433  -10.1831   18.9352 F   0  0  0  0  0  0  0  0  0  0  0  0
    8.3280   -5.2036   15.6462 C   0  0  0  0  0  0  0  0  0  0  0  0
    0.9709  -11.4690   18.4005 C   0  0  0  0  0  0  0  0  0  0  0  0
    6.7326   -6.5483   13.8953 Cl  0  0  0  0  0  0  0  0  0  0  0  0
    2.5122   -9.6620   17.8830 O   0  0  0  0  0  0  0  0  0  0  0  0
   10.9678   -4.0877   21.2533 C   0  0  0  0  0  0  0  0  0  0  0  0
    9.6519   -4.0252   15.8675 S   0  0  0  0  0  0  0  0  0  0  0  0
    8.7495   -7.0945   16.8569 N   0  0  0  0  0  0  0  0  0  0  0  0
   10.7495   -3.3362   18.9813 C   0  0  0  0  0  0  0  0  0  0  0  0
   10.7493   -2.3307   23.7533 C   0  0  0  0  0  0  0  0  0  0  0  0
   10.0519   -3.2397   16.7373 N   0  0  0  0  0  0  0  0  0  0  0  0
   11.2067   -2.7813   22.0587 C   0  0  0  0  0  0  0  0  0  0  0  0
    0.5060  -10.9742   18.2154 O   0  0  0  0  0  0  0  0  0  0  0  0
   10.6262   -5.2150   19.1401 C   0  0  0  0  0  0  0  0  0  0  0  0
    9.2055   -7.5681   18.5033 C   0  0  0  0  0  0  0  0  0  0  0  0
   10.9483   -4.8838   22.6386 N   0  0  0  0  0  0  0  0  0  0  0  0
   10.2973   -4.3781   17.9028 O   0  0  0  0  0  0  0  0  0  0  0  0
   10.9819   -4.6103   19.8188 P   0  0  0  0  0  0  0  0  0  0  0  0
    5.2963   -9.6024   17.9081 C   0  0  0  0  0  0  0  0  0  0  0  0
    5.7873   -8.0899   15.0989 He  0  0  0  0  0  0  0  0  0  0  0  0
   11.0455   -3.3189   16.9873 He  0  0  0  0  0  0  0  0  0  0  0  0
    6.5829   -6.9232   17.2009 He  0  0  0  0  0  0  0  0  0  0  0  0
    7.8062   -8.1844   17.1693 He  0  0  0  0  0  0  0  0  0  0  0  0
    9.0853   -4.7013   17.3405 He  0  0  0  0  0  0  0  0  0  0  0  0
    3.0415  -11.5649   19.6315 He  0  0  0  0  0  0  0  0  0  0  0  0
    5.1192   -8.2944   16.6903 He  0  0  0  0  0  0  0  0  0  0  0  0
    3.8959   -8.8639   16.1226 He  0  0  0  0  0  0  0  0  0  0  0  0
  1  2  2  0
  1  3  1  0
  1  5  3  0
  1  6  4  0
  1  7  4  0
  1 11  3  0
  1 15  3  0
  1 16  1  0
  1 18  1  0
  1 21  4  0
  2  4  4  0
  2  8  4  0
  2 10  3  0
  2 11  1  0
  2 17  4  0
  2 25  3  0
  2 26  1  0
  3  6  3  0
  3  9  2  0
  3 12  2  0
  3 14  1  0
  3 16  1  0
  3 17  1  0
  4 12  2  0
  4 18  3  0
  4 21  4  0
  4 25  1  0
  4 26  2  0
  5  8  1  0
  5 10  2  0
  5 11  1  0
  5 12  4  0
  5 14  1  0
  5 19  4  0
  6 11  2  0
  6 13  4  0
  6 15  1  0
  6 20  1  0
  6 23  4  0
  6 24  3  0
  6 25  2  0
  7 10  2  0
  7 11  1  0
  7 23  4  0
  8  9  3  0
  8 11  3  0
  8 14  4  0
  8 15  3  0
  8 16  3  0
  8 21  2  0
  9 12  1  0
  9 16  3  0
  9 17  3  0
  9 19  1  0
  9 21  4  0
  9 26  2  0
 10 14  3  0
 10 18  1  0
 10 20  2  0
 10 22  4  0
 10 23  2  0
 10 24  1  0
 10 26  4  0
 11 14  3  0
 11 15  2  0
 11 23  1  0
 12 15  3  0
 12 22  3  0
 12 23  2  0
 13 15  1  0
 13 19  4  0
 13 23  4  0
 13 26  3  0
 14 16  4  0
 14 18  4  0
 14 21  1  0
 15 16  2  0
 15 19  2  0
 15 20  2  0
 16 23  4  0
 16 24  4  0
 17 19  4  0
 17 26  1  0
 18 19  3  0
 18 23  4  0
 19 26  2  0
 21 25  4  0
 21 26  2  0
 22 23  2  0
 25 26  2  0
M  END
$$$$

 Created by Python create_sdf_string function

 34 25  0  0  0  0  0  0  0  0999 V2000
    8.7966   -8.1558   17.7856 C   0  0  0  0  0  0  0  0  0  0  0  0
   10.9952   -3.5099   24.4241 N   0  0  0  0  0  0  0  0  0  0  0  0
    9.9608   -5.3451   18.2260 C   0  0  0  0  0  0  0  0  0  0  0  0
    3.3552   -9.2853   16.8342 C   0  0  0  0  0  0  0  0  0  0  0  0
    1.8523  -10.5395   18.0803 C   0  0  0  0  0  0  0  0  0  0  0  0
    5.7178   -7.8463   15.2939 C   0  0  0  0  0  0  0  0  0  0  0  0
    4.4383   -8.1213   15.9275 C   0  0  0  0  0  0  0  0  0  0  0  0
   11.1374   -4.7452   24.0156 C   0  0  0  0  0  0  0  0  0  0  0  0
   10.6871   -3.2057   17.4239 C   0  0  0  0  0  0  0  0  0  0  0  0
    6.9851   -7.3379   16.9778 C   0  0  0  0  0  0  0  0  0  0  0  0
    7.4716   -7.8850   16.9372 C   0  0  0  0  0  0  0  0  0  0  0  0
    9.5032   -5.3241   17.1811 C   0  0  0  0  0  0  0  0  0  0  0  0
    0.6097  -10.8694   18.9791 N   0  0  0  0  0  0  0  0  0  0  0  0
    7.9082   -6.0113   15.9689 C   0  0  0  0  0  0  0  0  0  0  0  0
    0.9702  -11.2822   18.6753 C   0  0  0  0  0  0  0  0  0  0  0  0
    2.5568  -11.3536   18.9553 C   0  0  0  0  0  0  0  0  0  0  0  0
    6.6074   -6.5547   14.9708 C   0  0  0  0  0  0  0  0  0  0  0  0
    2.5087   -9.9514   17.6091 C   0  0  0  0  0  0  0  0  0  0  0  0
   10.9927   -4.0795   21.6789 C   0  0  0  0  0  0  0  0  0  0  0  0
    9.4420   -4.0614   15.8586 C   0  0  0  0  0  0  0  0  0  0  0  0
    8.2349   -6.7391   16.6473 N   0  0  0  0  0  0  0  0  0  0  0  0
   10.9949   -3.3939   19.1934 C   0  0  0  0  0  0  0  0  0  0  0  0
   10.9223   -2.5096   23.5133 C   0  0  0  0  0  0  0  0  0  0  0  0
    5.0876   -8.5974   16.7649 C   0  0  0  0  0  0  0  0  0  0  0  0
   10.1637   -3.3344   16.0836 N   0  0  0  0  0  0  0  0  0  0  0  0
   10.9771   -2.7887   22.1691 C   0  0  0  0  0  0  0  0  0  0  0  0
    0.2199  -11.3645   18.1524 O   0  0  0  0  0  0  0  0  0  0  0  0
   10.4609   -5.5539   19.8469 C   0  0  0  0  0  0  0  0  0  0  0  0
    9.2540   -7.7544   18.2751 C   0  0  0  0  0  0  0  0  0  0  0  0
   11.1151   -5.0487   22.6563 C   0  0  0  0  0  0  0  0  0  0  0  0
   10.5211   -3.9200   18.0069 C   0  0  0  0  0  0  0  0  0  0  0  0
   10.8243   -4.4222   20.3117 C   0  0  0  0  0  0  0  0  0  0  0  0
    4.6029   -9.7738   17.8623 C   0  0  0  0  0  0  0  0  0  0  0  0
    3.9493   -8.8384   16.4134 C   0  0  0  0  0  0  0  0  0  0  0  0
  1 11  1  0
  1 29  1  0
  2  8  4  0
  2 23  4  0
  3 12  4  0
  3 28  4  0
  3 31  4  0
  4 18  4  0
  4 34  4  0
  5 18  4  0
  8 30  4  0
  9 22  4  0
  9 25  4  0
  9 31  4  0
 10 11  4  0
 15 27  2  0
 19 26  4  0
 19 30  4  0
 19 32  1  0
 20 25  4  0
 22 31  4  0
 22 32  4  0
 23 26  4  0
 24 33  4  0
 28 32  4  0
M  END
$$$$

 Created by Python create_sdf_string function

 34 53  0  0  0  0  0  0  0  0999 V2000
   10.0165   -5.0929   18.2756 C   0  0  0  0  0  0  0  0  0  0  0  0
    2.4020   -8.8017   16.6909 N   0  0  0  0  0  0  0  0  0  0  0  0
    2.0108  -10.4190   18.2867 C   0  0  0  0  0  0  0  0  0  0  0  0
    5.7339   -8.0633   16.0126 C   0  0  0  0  0  0  0  0  0  0  0  0
    4.4073   -7.9344   16.9218 O   0  0  0  0  0  0  0  0  0  0  0  0
   10.8946   -4.6580   24.4728 C   0  0  0  0  0  0  0  0  0  0  0  0
   10.5662   -6.5286   18.6037 O   0  0  0  0  0  0  0  0  0  0  0  0
    1.6220  -10.3113   18.5750 P   0  0  0  0  0  0  0  0  0  0  0  0
    2.6250  -10.2500   18.0969 C   0  0  0  0  0  0  0  0  0  0  0  0
   11.0071   -3.8784   21.6419 C   0  0  0  0  0  0  0  0  0  0  0  0
    9.6513   -3.9508   15.7942 C   0  0  0  0  0  0  0  0  0  0  0  0
   11.0790   -3.3248   19.7324 C   0  0  0  0  0  0  0  0  0  0  0  0
   11.0729   -2.5738   23.6595 C   0  0  0  0  0  0  0  0  0  0  0  0
   10.6651   -2.5966   22.6702 C   0  0  0  0  0  0  0  0  0  0  0  0
    0.2556  -11.5723   18.7503 O   0  0  0  0  0  0  0  0  0  0  0  0
   10.1781   -5.9922   19.8568 C   0  0  0  0  0  0  0  0  0  0  0  0
    9.5512   -7.8973   18.1927 C   0  0  0  0  0  0  0  0  0  0  0  0
   11.0479   -4.8707   22.4924 C   0  0  0  0  0  0  0  0  0  0  0  0
   10.7250   -3.6137   18.1947 C   0  0  0  0  0  0  0  0  0  0  0  0
   10.7437   -4.2221   20.4473 C   0  0  0  0  0  0  0  0  0  0  0  0
    8.6260   -8.9294   17.6433 He  0  0  0  0  0  0  0  0  0  0  0  0
   10.4206   -3.4718   24.9473 He  0  0  0  0  0  0  0  0  0  0  0  0
   10.6605   -3.4018   17.5480 He  0  0  0  0  0  0  0  0  0  0  0  0
    7.4608   -6.7591   17.6705 He  0  0  0  0  0  0  0  0  0  0  0  0
    8.7666   -7.1593   16.4048 He  0  0  0  0  0  0  0  0  0  0  0  0
    0.7847  -10.7074   19.0696 He  0  0  0  0  0  0  0  0  0  0  0  0
    8.8376   -5.9281   16.4767 He  0  0  0  0  0  0  0  0  0  0  0  0
    2.8965  -11.0545   19.5174 He  0  0  0  0  0  0  0  0  0  0  0  0
    6.5680   -6.6193   15.2048 He  0  0  0  0  0  0  0  0  0  0  0  0
    5.4724   -5.6368   17.1099 He  0  0  0  0  0  0  0  0  0  0  0  0
    5.0557   -7.9782   15.8127 He  0  0  0  0  0  0  0  0  0  0  0  0
    9.9760   -3.6621   15.4903 He  0  0  0  0  0  0  0  0  0  0  0  0
    4.9680   -9.1547   17.6377 He  0  0  0  0  0  0  0  0  0  0  0  0
    5.3085   -8.9002   16.6762 He  0  0  0  0  0  0  0  0  0  0  0  0
  1  5  2  0
  1  6  2  0
  1 15  4  0
  1 16  4  0
  2  4  2  0
  2  6  3  0
  2  9  4  0
  2 17  4  0
  2 18  2  0
  2 20  2  0
  3  5  2  0
  3  8  2  0
  3 20  4  0
  4  5  4  0
  4  9  1  0
  4 11  1  0
  4 15  3  0
  5  7  3  0
  5  8  1  0
  5  9  4  0
  5 11  2  0
  5 13  4  0
  5 15  2  0
  5 16  1  0
  5 18  2  0
  6  7  3  0
  6 16  3  0
  6 17  1  0
  6 18  4  0
  7 12  1  0
  7 14  4  0
  7 17  3  0
  7 19  1  0
  8 10  3  0
  8 12  3  0
  8 14  4  0
  8 17  3  0
 10 14  4  0
 10 17  3  0
 10 18  3  0
 10 19  2  0
 10 20  3  0
 11 16  2  0
 12 15  4  0
 12 19  4  0
 12 20  4  0
 13 14  4  0
 13 17  3  0
 13 19  1  0
 13 20  3  0
 16 20  4  0
 17 19  1  0
 18 20  2  0
M  END
$$$$

 Created by Python create_sdf_string function

 34 25  0  0  0  0  0  0  0  0999 V2000
    8.5200   -8.2500   17.3942 C   0  0  0  0  0  0  0  0  0  0  0  0
   10.7151   -3.5115   24.7253 C   0  0  0  0  0  0  0  0  0  0  0  0
   10.2282   -5.2982   18.6273 C   0  0  0  0  0  0  0  0  0  0  0  0
    2.8128   -9.2939   16.8725 N   0  0  0  0  0  0  0  0  0  0  0  0
    1.9334  -10.6196   18.1950 C   0  0  0  0  0  0  0  0  0  0  0  0
    5.7451   -8.2597   15.9354 C   0  0  0  0  0  0  0  0  0  0  0  0
    4.4316   -8.5506   16.9041 C   0  0  0  0  0  0  0  0  0  0  0  0
   10.9353   -4.7006   24.2096 C   0  0  0  0  0  0  0  0  0  0  0  0
   10.3541   -4.1726   17.7796 C   0  0  0  0  0  0  0  0  0  0  0  0
    7.4103   -6.9944   16.9016 C   0  0  0  0  0  0  0  0  0  0  0  0
    8.4766   -7.1106   16.4647 C   0  0  0  0  0  0  0  0  0  0  0  0
    9.7668   -6.6090   18.0699 N   0  0  0  0  0  0  0  0  0  0  0  0
    0.9303  -11.3062   18.9697 C   0  0  0  0  0  0  0  0  0  0  0  0
    8.8482   -5.7391   16.3882 C   0  0  0  0  0  0  0  0  0  0  0  0
    1.1402  -10.9258   18.3055 C   0  0  0  0  0  0  0  0  0  0  0  0
    2.3276  -11.3771   19.0607 N   0  0  0  0  0  0  0  0  0  0  0  0
    6.8073   -6.5323   15.5222 O   0  0  0  0  0  0  0  0  0  0  0  0
    2.7254   -9.8926   17.6406 C   0  0  0  0  0  0  0  0  0  0  0  0
   10.8879   -3.8903   21.9040 C   0  0  0  0  0  0  0  0  0  0  0  0
    9.5143   -4.0495   15.9190 C   0  0  0  0  0  0  0  0  0  0  0  0
    6.2816   -6.9626   16.7899 C   0  0  0  0  0  0  0  0  0  0  0  0
   11.1135   -3.1535   19.5604 C   0  0  0  0  0  0  0  0  0  0  0  0
   10.6951   -2.4591   23.9073 C   0  0  0  0  0  0  0  0  0  0  0  0
    4.7382   -8.2200   16.1140 C   0  0  0  0  0  0  0  0  0  0  0  0
   10.0522   -3.7967   15.9365 C   0  0  0  0  0  0  0  0  0  0  0  0
   10.8025   -2.6044   22.5333 C   0  0  0  0  0  0  0  0  0  0  0  0
    0.3581  -11.6937   18.8893 O   0  0  0  0  0  0  0  0  0  0  0  0
   10.4831   -5.3378   19.9313 C   0  0  0  0  0  0  0  0  0  0  0  0
    9.4689   -7.8182   18.2100 C   0  0  0  0  0  0  0  0  0  0  0  0
   11.0035   -4.9291   22.8601 C   0  0  0  0  0  0  0  0  0  0  0  0
   10.8417   -3.1980   18.2937 C   0  0  0  0  0  0  0  0  0  0  0  0
   10.8412   -4.1471   20.4978 C   0  0  0  0  0  0  0  0  0  0  0  0
    4.7067   -9.3951   17.6779 C   0  0  0  0  0  0  0  0  0  0  0  0
    5.1775   -8.9254   17.2451 C   0  0  0  0  0  0  0  0  0  0  0  0
  1 11  1  0
  1 29  1  0
  2  8  4  0
  2 23  4  0
  3  9  4  0
  3 28  4  0
  4 18  4  0
  5 15  4  0
  5 18  4  0
  6 24  4  0
  8 30  4  0
  9 31  4  0
 10 21  1  0
 12 29  1  0
 13 27  4  0
 14 20  1  0
 19 26  4  0
 19 30  4  0
 19 32  1  0
 20 25  1  0
 22 31  4  0
 22 32  4  0
 23 26  4  0
 28 32  4  0
 33 34  4  0
M  END
$$$$

 Created by Python create_sdf_string function

 34 84  0  0  0  0  0  0  0  0999 V2000
   10.8304   -4.1169   24.8207 C   0  0  0  0  0  0  0  0  0  0  0  0
   10.3237   -4.9183   18.3358 C   0  0  0  0  0  0  0  0  0  0  0  0
    2.6866   -8.3166   15.8964 C   0  0  0  0  0  0  0  0  0  0  0  0
    1.6754  -10.6817   18.5446 C   0  0  0  0  0  0  0  0  0  0  0  0
    5.1984   -8.2308   15.9875 C   0  0  0  0  0  0  0  0  0  0  0  0
   10.5671   -4.9818   24.0994 C   0  0  0  0  0  0  0  0  0  0  0  0
    7.6370   -5.2461   16.9304 O   0  0  0  0  0  0  0  0  0  0  0  0
    8.7980   -6.7532   19.9265 P   0  0  0  0  0  0  0  0  0  0  0  0
    0.8695  -12.4441   18.3674 C   0  0  0  0  0  0  0  0  0  0  0  0
   11.4551   -4.0146   16.3246 C   0  0  0  0  0  0  0  0  0  0  0  0
    4.2785  -10.7508   17.5121 N   0  0  0  0  0  0  0  0  0  0  0  0
    6.5799   -6.9284   14.9520 O   0  0  0  0  0  0  0  0  0  0  0  0
    2.5836  -10.0052   18.0689 C   0  0  0  0  0  0  0  0  0  0  0  0
   10.9100   -3.6839   21.8705 C   0  0  0  0  0  0  0  0  0  0  0  0
    9.4440   -4.4432   16.1453 C   0  0  0  0  0  0  0  0  0  0  0  0
    6.3040   -6.8792   16.6866 F   0  0  0  0  0  0  0  0  0  0  0  0
   11.3300   -3.3921   19.4209 C   0  0  0  0  0  0  0  0  0  0  0  0
   11.0074   -2.7195   24.7217 C   0  0  0  0  0  0  0  0  0  0  0  0
    9.5339   -3.6416   15.6402 S   0  0  0  0  0  0  0  0  0  0  0  0
   10.7703   -2.4118   22.7964 C   0  0  0  0  0  0  0  0  0  0  0  0
   10.6098   -4.8832   20.8966 C   0  0  0  0  0  0  0  0  0  0  0  0
   10.6328   -5.3861   23.3646 C   0  0  0  0  0  0  0  0  0  0  0  0
   10.8440   -3.3374   17.9687 C   0  0  0  0  0  0  0  0  0  0  0  0
   11.1085   -4.4467   20.4000 C   0  0  0  0  0  0  0  0  0  0  0  0
    6.0313  -10.6570   18.6419 C   0  0  0  0  0  0  0  0  0  0  0  0
    6.0239   -9.0743   17.7661 F   0  0  0  0  0  0  0  0  0  0  0  0
    9.3942   -7.6347   17.9172 He  0  0  0  0  0  0  0  0  0  0  0  0
    3.0380   -7.1159   16.4346 He  0  0  0  0  0  0  0  0  0  0  0  0
   10.4971   -5.0188   16.2830 He  0  0  0  0  0  0  0  0  0  0  0  0
    9.0150   -7.1708   17.2585 He  0  0  0  0  0  0  0  0  0  0  0  0
    1.4969  -10.9681   19.7721 He  0  0  0  0  0  0  0  0  0  0  0  0
    4.3991   -7.0908   15.7304 He  0  0  0  0  0  0  0  0  0  0  0  0
    0.2371  -11.3950   18.9591 He  0  0  0  0  0  0  0  0  0  0  0  0
    9.4175   -7.5822   18.1475 He  0  0  0  0  0  0  0  0  0  0  0  0
  1  2  4  0
  1  5  4  0
  1  9  2  0
  1 16  2  0
  1 26  4  0
  2  7  4  0
  2  8  4  0
  2  9  3  0
  2 22  4  0
  2 25  4  0
  3  6  2  0
  3  8  3  0
  3  9  2  0
  3 12  1  0
  3 13  3  0
  3 16  2  0
  3 17  2  0
  3 18  1  0
  3 19  4  0
  3 20  2  0
  3 25  3  0
  3 26  1  0
  4  6  3  0
  4  9  4  0
  4 10  2  0
  4 12  1  0
  4 13  4  0
  4 16  3  0
  4 18  2  0
  5  7  2  0
  5  8  1  0
  6  7  2  0
  6  9  2  0
  6 12  4  0
  6 15  2  0
  6 21  4  0
  6 22  4  0
  7 11  3  0
  7 12  1  0
  7 17  3  0
  8 12  2  0
  8 15  1  0
  8 18  1  0
  8 20  3  0
  9 11  4  0
  9 12  4  0
  9 13  4  0
  9 15  3  0
  9 16  1  0
  9 19  2  0
  9 20  2  0
 10 13  3  0
 10 14  4  0
 10 16  3  0
 10 18  2  0
 10 20  4  0
 11 19  3  0
 12 16  2  0
 12 17  2  0
 12 22  2  0
 12 23  3  0
 13 26  4  0
 14 22  4  0
 14 23  1  0
 14 24  1  0
 15 18  4  0
 15 19  1  0
 15 22  3  0
 15 25  3  0
 15 26  3  0
 16 18  3  0
 16 26  3  0
 17 24  4  0
 17 25  4  0
 18 20  4  0
 18 25  1  0
 20 23  3  0
 21 24  4  0
 21 25  2  0
 21 26  4  0
 22 23  4  0
 23 24  4  0
 23 25  1  0
 23 26  3  0
M  END
$$$$

 Created by Python create_sdf_string function

 34 27  0  0  0  0  0  0  0  0999 V2000
    8.7050   -7.3203   17.5779 C   0  0  0  0  0  0  0  0  0  0  0  0
   10.8769   -3.7793   24.9759 C   0  0  0  0  0  0  0  0  0  0  0  0
   10.3706   -5.0572   18.5431 C   0  0  0  0  0  0  0  0  0  0  0  0
    3.2794   -8.7272   16.6150 C   0  0  0  0  0  0  0  0  0  0  0  0
    1.8082  -10.5673   18.0480 C   0  0  0  0  0  0  0  0  0  0  0  0
    5.0521   -8.3214   16.6303 C   0  0  0  0  0  0  0  0  0  0  0  0
    3.0204   -8.4490   16.4929 C   0  0  0  0  0  0  0  0  0  0  0  0
   11.1016   -4.9291   24.3048 C   0  0  0  0  0  0  0  0  0  0  0  0
   10.0966   -4.6749   17.0989 C   0  0  0  0  0  0  0  0  0  0  0  0
    8.5654   -7.2039   17.3326 C   0  0  0  0  0  0  0  0  0  0  0  0
    7.8369   -6.0958   16.3325 O   0  0  0  0  0  0  0  0  0  0  0  0
    9.7076   -6.5745   18.8758 C   0  0  0  0  0  0  0  0  0  0  0  0
    0.9590  -11.4588   18.6147 C   0  0  0  0  0  0  0  0  0  0  0  0
   11.1233   -3.5559   16.5736 C   0  0  0  0  0  0  0  0  0  0  0  0
    2.1516  -11.4765   19.3213 N   0  0  0  0  0  0  0  0  0  0  0  0
    3.6773  -10.4589   18.2578 N   0  0  0  0  0  0  0  0  0  0  0  0
    6.5471   -6.4935   15.4996 O   0  0  0  0  0  0  0  0  0  0  0  0
    2.6169  -10.1230   17.7709 C   0  0  0  0  0  0  0  0  0  0  0  0
   10.9364   -3.8968   22.1835 C   0  0  0  0  0  0  0  0  0  0  0  0
    9.2571   -4.3438   16.0732 C   0  0  0  0  0  0  0  0  0  0  0  0
    6.8200   -7.2911   16.4013 C   0  0  0  0  0  0  0  0  0  0  0  0
   11.0289   -3.1992   19.7797 C   0  0  0  0  0  0  0  0  0  0  0  0
   10.7904   -2.6311   24.2771 C   0  0  0  0  0  0  0  0  0  0  0  0
    4.5741   -7.7156   16.0039 C   0  0  0  0  0  0  0  0  0  0  0  0
    9.7127   -3.8280   15.8726 C   0  0  0  0  0  0  0  0  0  0  0  0
   10.8090   -2.6480   22.9094 C   0  0  0  0  0  0  0  0  0  0  0  0
    0.7222  -11.6970   19.0029 N   0  0  0  0  0  0  0  0  0  0  0  0
   10.6782   -5.3172   20.2372 C   0  0  0  0  0  0  0  0  0  0  0  0
    9.2804   -7.5862   18.1962 C   0  0  0  0  0  0  0  0  0  0  0  0
   11.1392   -4.9427   22.9697 C   0  0  0  0  0  0  0  0  0  0  0  0
   11.0192   -3.4098   18.4415 C   0  0  0  0  0  0  0  0  0  0  0  0
   10.8699   -4.0611   20.7640 C   0  0  0  0  0  0  0  0  0  0  0  0
    5.2902   -9.6941   17.8980 C   0  0  0  0  0  0  0  0  0  0  0  0
    6.2546   -8.8357   17.4217 C   0  0  0  0  0  0  0  0  0  0  0  0
  1 10  1  0
  2  8  4  0
  2 23  4  0
  3  9  4  0
  3 12  4  0
  3 28  4  0
  3 31  4  0
  4  7  4  0
  4 24  4  0
  5 13  4  0
  5 18  4  0
  6 24  4  0
  8 30  4  0
 13 27  4  0
 15 27  4  0
 16 18  4  0
 16 33  4  0
 17 21  2  0
 19 26  4  0
 19 30  4  0
 19 32  1  0
 20 25  1  0
 22 31  4  0
 22 32  4  0
 23 26  4  0
 28 32  4  0
 33 34  4  0
M  END
$$$$

 Created by Python create_sdf_string function

 34 59  0  0  0  0  0  0  0  0999 V2000
    7.8815   -7.3948   17.7621 O   0  0  0  0  0  0  0  0  0  0  0  0
   10.9006   -4.1517   24.8220 C   0  0  0  0  0  0  0  0  0  0  0  0
   10.1400   -4.7487   18.3698 C   0  0  0  0  0  0  0  0  0  0  0  0
    3.6859   -9.1419   14.6487 O   0  0  0  0  0  0  0  0  0  0  0  0
    5.2998   -8.2553   17.4234 O   0  0  0  0  0  0  0  0  0  0  0  0
    3.4500   -8.5873   16.3496 S   0  0  0  0  0  0  0  0  0  0  0  0
   11.1779   -4.9801   24.1138 C   0  0  0  0  0  0  0  0  0  0  0  0
   10.4515   -7.5204   17.3300 O   0  0  0  0  0  0  0  0  0  0  0  0
    7.5558   -6.4143   16.5784 F   0  0  0  0  0  0  0  0  0  0  0  0
   -0.0271  -12.3581   18.4062 C   0  0  0  0  0  0  0  0  0  0  0  0
    6.6030   -7.6814   14.7945 C   0  0  0  0  0  0  0  0  0  0  0  0
    2.6989   -9.8627   17.7176 C   0  0  0  0  0  0  0  0  0  0  0  0
   11.0641   -4.2143   21.7457 O   0  0  0  0  0  0  0  0  0  0  0  0
    9.0837   -4.5916   15.9506 C   0  0  0  0  0  0  0  0  0  0  0  0
   10.8871   -3.4416   19.7552 C   0  0  0  0  0  0  0  0  0  0  0  0
   11.3913   -2.7896   24.1913 C   0  0  0  0  0  0  0  0  0  0  0  0
    9.8140   -4.1264   16.4340 C   0  0  0  0  0  0  0  0  0  0  0  0
   10.4663   -2.8857   23.1504 C   0  0  0  0  0  0  0  0  0  0  0  0
    1.2974  -11.8003   18.8962 N   0  0  0  0  0  0  0  0  0  0  0  0
   10.6225   -5.1994   19.8618 C   0  0  0  0  0  0  0  0  0  0  0  0
   11.1738   -5.2554   23.3273 C   0  0  0  0  0  0  0  0  0  0  0  0
   11.0139   -4.1188   20.2056 C   0  0  0  0  0  0  0  0  0  0  0  0
    2.4444  -10.1945   17.9176 He  0  0  0  0  0  0  0  0  0  0  0  0
    8.3128   -6.8751   18.8897 He  0  0  0  0  0  0  0  0  0  0  0  0
    9.0942   -7.2712   17.7725 He  0  0  0  0  0  0  0  0  0  0  0  0
   11.6377   -3.1839   15.6559 He  0  0  0  0  0  0  0  0  0  0  0  0
    1.5782  -10.1676   18.5032 He  0  0  0  0  0  0  0  0  0  0  0  0
    5.0107   -7.2113   18.6169 He  0  0  0  0  0  0  0  0  0  0  0  0
    6.0879   -6.8786   16.1418 He  0  0  0  0  0  0  0  0  0  0  0  0
    4.2091   -7.6615   15.8518 He  0  0  0  0  0  0  0  0  0  0  0  0
    9.0762   -7.5699   18.7493 He  0  0  0  0  0  0  0  0  0  0  0  0
   11.1777   -3.3925   18.5522 He  0  0  0  0  0  0  0  0  0  0  0  0
    5.6126   -9.4826   16.6322 He  0  0  0  0  0  0  0  0  0  0  0  0
    7.1733   -8.6118   17.8919 He  0  0  0  0  0  0  0  0  0  0  0  0
  1  8  2  0
  1  9  2  0
  1 15  3  0
  1 16  1  0
  1 18  1  0
  1 20  1  0
  2  9  1  0
  2 10  1  0
  2 12  1  0
  3  4  4  0
  3  7  2  0
  3  8  3  0
  3 11  1  0
  3 22  2  0
  4  5  4  0
  4 10  3  0
  4 11  3  0
  4 18  2  0
  4 19  3  0
  4 20  4  0
  5 10  3  0
  6  9  2  0
  6 14  4  0
  6 18  2  0
  6 21  3  0
  6 22  3  0
  7  8  3  0
  7 12  1  0
  7 21  4  0
  8 10  3  0
  8 11  2  0
  8 13  4  0
  8 14  2  0
  8 15  4  0
  9 10  2  0
  9 11  1  0
  9 13  1  0
  9 14  1  0
  9 17  1  0
  9 21  2  0
  9 22  1  0
 10 12  1  0
 10 13  1  0
 10 16  4  0
 10 22  2  0
 11 15  3  0
 11 17  2  0
 11 18  1  0
 11 19  4  0
 11 22  2  0
 12 16  2  0
 12 19  4  0
 13 18  1  0
 13 21  4  0
 13 22  1  0
 14 17  1  0
 15 22  4  0
 16 18  4  0
 16 19  1  0
M  END
$$$$

 Created by Python create_sdf_string function

 34 23  0  0  0  0  0  0  0  0999 V2000
    7.8489   -7.4931   17.4690 C   0  0  0  0  0  0  0  0  0  0  0  0
   11.0223   -3.9851   24.8931 C   0  0  0  0  0  0  0  0  0  0  0  0
   10.3681   -4.7479   18.5552 C   0  0  0  0  0  0  0  0  0  0  0  0
    3.4831   -8.8924   15.5778 C   0  0  0  0  0  0  0  0  0  0  0  0
    2.3392  -10.2646   17.7297 C   0  0  0  0  0  0  0  0  0  0  0  0
    5.1086   -8.4766   17.4814 O   0  0  0  0  0  0  0  0  0  0  0  0
    3.1824   -9.2794   16.7333 C   0  0  0  0  0  0  0  0  0  0  0  0
   11.2922   -5.1026   24.1947 C   0  0  0  0  0  0  0  0  0  0  0  0
    9.7582   -6.9734   17.6912 C   0  0  0  0  0  0  0  0  0  0  0  0
    9.0374   -6.3123   17.9165 C   0  0  0  0  0  0  0  0  0  0  0  0
    7.4854   -6.5851   16.0753 C   0  0  0  0  0  0  0  0  0  0  0  0
    9.1311   -6.3584   17.7496 C   0  0  0  0  0  0  0  0  0  0  0  0
    0.5936  -11.3784   18.2696 C   0  0  0  0  0  0  0  0  0  0  0  0
   11.0295   -3.5891   15.9822 O   0  0  0  0  0  0  0  0  0  0  0  0
    1.7638  -10.7471   18.1555 C   0  0  0  0  0  0  0  0  0  0  0  0
    5.5884   -8.0889   18.0753 C   0  0  0  0  0  0  0  0  0  0  0  0
    6.5672   -7.6605   15.6377 C   0  0  0  0  0  0  0  0  0  0  0  0
    2.4418  -10.3157   17.8405 C   0  0  0  0  0  0  0  0  0  0  0  0
   10.9357   -4.0818   22.0672 C   0  0  0  0  0  0  0  0  0  0  0  0
    9.2112   -4.5352   16.0348 C   0  0  0  0  0  0  0  0  0  0  0  0
    5.9332   -7.0710   15.8024 C   0  0  0  0  0  0  0  0  0  0  0  0
   11.1426   -3.1333   19.8202 C   0  0  0  0  0  0  0  0  0  0  0  0
   10.7678   -2.8678   24.2339 C   0  0  0  0  0  0  0  0  0  0  0  0
    4.3915   -8.1053   15.8114 C   0  0  0  0  0  0  0  0  0  0  0  0
    9.6671   -4.0308   16.1640 C   0  0  0  0  0  0  0  0  0  0  0  0
   10.7367   -2.9035   22.8214 C   0  0  0  0  0  0  0  0  0  0  0  0
    1.3380  -11.4304   18.9483 N   0  0  0  0  0  0  0  0  0  0  0  0
   10.4384   -5.3209   19.9463 C   0  0  0  0  0  0  0  0  0  0  0  0
    9.2652   -7.6972   18.7038 C   0  0  0  0  0  0  0  0  0  0  0  0
   11.2276   -5.1277   22.8467 C   0  0  0  0  0  0  0  0  0  0  0  0
   10.9806   -3.3835   18.5229 N   0  0  0  0  0  0  0  0  0  0  0  0
   10.8606   -4.1691   20.6558 C   0  0  0  0  0  0  0  0  0  0  0  0
    5.1268   -9.0329   16.9017 C   0  0  0  0  0  0  0  0  0  0  0  0
    7.1673   -8.1894   17.7109 C   0  0  0  0  0  0  0  0  0  0  0  0
  1 34  1  0
  2  8  4  0
  2 23  4  0
  3 28  4  0
  3 31  4  0
  5 18  4  0
  6 16  1  0
  6 33  1  0
  8 30  4  0
  9 29  1  0
 11 17  1  0
 13 27  4  0
 15 27  4  0
 17 21  1  0
 18 27  4  0
 19 26  4  0
 19 30  4  0
 19 32  1  0
 20 25  1  0
 22 31  4  0
 22 32  4  0
 23 26  4  0
 28 32  4  0
M  END
$$$$

 Created by Python create_sdf_string function

 34 69  0  0  0  0  0  0  0  0999 V2000
   10.6161   -4.1872   24.2901 C   0  0  0  0  0  0  0  0  0  0  0  0
   10.4213   -4.7306   18.9618 C   0  0  0  0  0  0  0  0  0  0  0  0
    3.6900   -8.8094   15.2274 C   0  0  0  0  0  0  0  0  0  0  0  0
    2.1598   -9.8013   17.8115 C   0  0  0  0  0  0  0  0  0  0  0  0
    4.7646   -9.1465   17.2454 O   0  0  0  0  0  0  0  0  0  0  0  0
   11.1022   -5.0617   24.1317 C   0  0  0  0  0  0  0  0  0  0  0  0
   10.8682   -6.6179   17.8208 C   0  0  0  0  0  0  0  0  0  0  0  0
    9.2529   -5.1980   17.8625 O   0  0  0  0  0  0  0  0  0  0  0  0
    0.6950  -10.7994   17.6843 C   0  0  0  0  0  0  0  0  0  0  0  0
    5.4468   -9.5934   17.3549 P   0  0  0  0  0  0  0  0  0  0  0  0
    2.7436   -9.8928   17.6132 C   0  0  0  0  0  0  0  0  0  0  0  0
   10.7133   -4.3543   22.5446 C   0  0  0  0  0  0  0  0  0  0  0  0
    8.8822   -4.6641   16.4022 C   0  0  0  0  0  0  0  0  0  0  0  0
    7.9682   -5.8717   16.9137 I   0  0  0  0  0  0  0  0  0  0  0  0
   11.0462   -2.9157   20.0002 S   0  0  0  0  0  0  0  0  0  0  0  0
   10.5154   -2.9784   24.5225 C   0  0  0  0  0  0  0  0  0  0  0  0
    9.4902   -3.9138   16.2697 C   0  0  0  0  0  0  0  0  0  0  0  0
   10.8855   -2.9276   23.2241 C   0  0  0  0  0  0  0  0  0  0  0  0
    1.0788  -11.3662   18.3761 N   0  0  0  0  0  0  0  0  0  0  0  0
   10.7500   -5.0360   20.3486 C   0  0  0  0  0  0  0  0  0  0  0  0
    9.2671   -7.5498   18.4470 C   0  0  0  0  0  0  0  0  0  0  0  0
   11.5922   -3.6488   18.3402 N   0  0  0  0  0  0  0  0  0  0  0  0
   11.0475   -3.7776   20.6964 C   0  0  0  0  0  0  0  0  0  0  0  0
    5.0315   -8.7034   17.1772 B   0  0  0  0  0  0  0  0  0  0  0  0
    7.1883   -7.6963   17.2130 He  0  0  0  0  0  0  0  0  0  0  0  0
    3.8315   -7.9818   16.4620 He  0  0  0  0  0  0  0  0  0  0  0  0
    7.3347   -4.7566   17.2797 He  0  0  0  0  0  0  0  0  0  0  0  0
    6.9449   -5.7072   15.0725 He  0  0  0  0  0  0  0  0  0  0  0  0
   11.4978   -2.8074   17.6723 He  0  0  0  0  0  0  0  0  0  0  0  0
    0.8371  -10.5463   19.0770 He  0  0  0  0  0  0  0  0  0  0  0  0
    5.6942   -8.0373   15.5075 He  0  0  0  0  0  0  0  0  0  0  0  0
    2.9661   -7.3860   16.3053 He  0  0  0  0  0  0  0  0  0  0  0  0
   10.9322   -5.2815   23.1109 He  0  0  0  0  0  0  0  0  0  0  0  0
    5.8630   -7.5439   17.7578 He  0  0  0  0  0  0  0  0  0  0  0  0
  1  3  1  0
  1  6  4  0
  1 14  4  0
  1 16  4  0
  1 23  3  0
  2  8  3  0
  2  9  1  0
  2 10  2  0
  2 16  4  0
  2 20  4  0
  2 22  4  0
  2 24  2  0
  3  6  3  0
  3  9  3  0
  3 10  3  0
  3 13  1  0
  3 14  1  0
  3 19  4  0
  3 23  4  0
  4  9  3  0
  4 11  4  0
  4 14  3  0
  4 17  2  0
  4 24  3  0
  5  9  2  0
  5 10  1  0
  5 15  1  0
  5 17  3  0
  6  7  4  0
  7  8  4  0
  7 15  1  0
  7 16  1  0
  7 19  4  0
  7 21  4  0
  7 24  1  0
  8 13  1  0
  8 21  1  0
  8 24  2  0
  9 10  1  0
  9 18  4  0
  9 19  2  0
  9 23  4  0
  9 24  3  0
 10 17  1  0
 10 18  1  0
 10 19  1  0
 10 21  4  0
 10 22  3  0
 11 19  4  0
 11 22  4  0
 12 14  1  0
 12 17  3  0
 12 18  4  0
 12 23  1  0
 13 15  3  0
 13 17  1  0
 13 22  2  0
 14 18  2  0
 14 20  1  0
 14 22  4  0
 14 23  3  0
 15 22  4  0
 15 23  4  0
 16 18  4  0
 17 24  3  0
 18 24  2  0
 19 20  3  0
 20 23  4  0
 21 24  3  0
M  END
$$$$

 Created by Python create_sdf_string function

 34 27  0  0  0  0  0  0  0  0999 V2000
    7.6536   -7.6757   17.1838 C   0  0  0  0  0  0  0  0  0  0  0  0
   10.7250   -4.1291   25.0097 C   0  0  0  0  0  0  0  0  0  0  0  0
   10.5669   -4.7590   18.8079 C   0  0  0  0  0  0  0  0  0  0  0  0
    3.2209   -8.5493   16.0202 C   0  0  0  0  0  0  0  0  0  0  0  0
    2.0077   -9.8443   17.5351 C   0  0  0  0  0  0  0  0  0  0  0  0
    4.8853   -9.4655   17.7008 O   0  0  0  0  0  0  0  0  0  0  0  0
    3.6032   -8.2398   16.1866 C   0  0  0  0  0  0  0  0  0  0  0  0
   11.0627   -5.1990   24.3212 C   0  0  0  0  0  0  0  0  0  0  0  0
    9.8477   -6.6313   17.8785 C   0  0  0  0  0  0  0  0  0  0  0  0
    8.0980   -5.9459   16.5733 C   0  0  0  0  0  0  0  0  0  0  0  0
    6.8829   -5.9600   15.3590 O   0  0  0  0  0  0  0  0  0  0  0  0
   10.0593   -5.4337   17.8391 C   0  0  0  0  0  0  0  0  0  0  0  0
    0.6110  -10.2409   17.7456 C   0  0  0  0  0  0  0  0  0  0  0  0
   11.1557   -3.0253   17.1968 C   0  0  0  0  0  0  0  0  0  0  0  0
    0.9052  -10.8343   18.0523 N   0  0  0  0  0  0  0  0  0  0  0  0
    5.4232   -8.9215   17.4083 C   0  0  0  0  0  0  0  0  0  0  0  0
    5.8972   -7.5156   15.8466 C   0  0  0  0  0  0  0  0  0  0  0  0
    2.3548  -10.4505   18.0057 C   0  0  0  0  0  0  0  0  0  0  0  0
   10.9790   -4.0006   22.3066 C   0  0  0  0  0  0  0  0  0  0  0  0
    8.9968   -4.6431   16.4138 C   0  0  0  0  0  0  0  0  0  0  0  0
    7.8191   -6.4162   16.5819 C   0  0  0  0  0  0  0  0  0  0  0  0
   11.3628   -3.0145   20.0550 N   0  0  0  0  0  0  0  0  0  0  0  0
   10.5262   -2.9481   24.4289 C   0  0  0  0  0  0  0  0  0  0  0  0
    2.7493   -8.4346   16.3632 C   0  0  0  0  0  0  0  0  0  0  0  0
    9.7041   -3.7584   16.2837 C   0  0  0  0  0  0  0  0  0  0  0  0
   10.6862   -2.8550   23.0535 C   0  0  0  0  0  0  0  0  0  0  0  0
    0.9896  -11.2695   18.4137 N   0  0  0  0  0  0  0  0  0  0  0  0
   10.6583   -5.1488   20.1664 C   0  0  0  0  0  0  0  0  0  0  0  0
    9.2807   -7.4978   18.3343 C   0  0  0  0  0  0  0  0  0  0  0  0
   11.1761   -5.1880   22.9699 C   0  0  0  0  0  0  0  0  0  0  0  0
   11.1241   -3.4440   18.7075 N   0  0  0  0  0  0  0  0  0  0  0  0
   11.0273   -4.0313   20.9280 C   0  0  0  0  0  0  0  0  0  0  0  0
    4.8747   -8.5826   16.9735 C   0  0  0  0  0  0  0  0  0  0  0  0
    6.5551   -7.8072   17.4810 C   0  0  0  0  0  0  0  0  0  0  0  0
  2  8  4  0
  2 23  4  0
  3 12  4  0
  3 28  4  0
  3 31  4  0
  4  7  4  0
  5 13  4  0
  5 18  4  0
  6 16  1  0
  8 30  4  0
  9 12  4  0
  9 29  4  0
 10 21  4  0
 13 15  4  0
 13 27  4  0
 14 25  4  0
 14 31  1  0
 15 27  4  0
 18 27  4  0
 19 26  4  0
 19 30  4  0
 19 32  1  0
 20 25  1  0
 22 31  4  0
 22 32  4  0
 23 26  4  0
 28 32  4  0
M  END
$$$$

 Created by Python create_sdf_string function

 34 58  0  0  0  0  0  0  0  0999 V2000
    8.7645   -7.4014   18.4164 C   0  0  0  0  0  0  0  0  0  0  0  0
   10.2396   -4.8629   18.8613 B   0  0  0  0  0  0  0  0  0  0  0  0
    2.5877   -8.9374   16.1225 O   0  0  0  0  0  0  0  0  0  0  0  0
    1.9571   -9.9434   17.0390 C   0  0  0  0  0  0  0  0  0  0  0  0
    4.6217   -9.0516   17.9835 O   0  0  0  0  0  0  0  0  0  0  0  0
    1.8185   -7.7252   15.6781 C   0  0  0  0  0  0  0  0  0  0  0  0
   11.2619   -4.5948   24.4780 C   0  0  0  0  0  0  0  0  0  0  0  0
    9.6103   -6.6934   16.7014 F   0  0  0  0  0  0  0  0  0  0  0  0
    8.3338   -6.2600   17.5722 Cl  0  0  0  0  0  0  0  0  0  0  0  0
    7.2082   -6.7111   15.5311 O   0  0  0  0  0  0  0  0  0  0  0  0
    5.5819   -8.3554   17.6593 P   0  0  0  0  0  0  0  0  0  0  0  0
    2.4966   -9.6616   18.2367 C   0  0  0  0  0  0  0  0  0  0  0  0
   10.9895   -3.8731   22.4321 Cl  0  0  0  0  0  0  0  0  0  0  0  0
    8.9578   -4.7043   16.8027 C   0  0  0  0  0  0  0  0  0  0  0  0
   10.2362   -3.4633   24.2399 C   0  0  0  0  0  0  0  0  0  0  0  0
    3.2119   -8.5355   15.6569 S   0  0  0  0  0  0  0  0  0  0  0  0
   11.0430   -3.3201   23.4183 C   0  0  0  0  0  0  0  0  0  0  0  0
   10.7466   -5.3269   20.1040 Cl  0  0  0  0  0  0  0  0  0  0  0  0
   11.1799   -5.1491   23.0304 C   0  0  0  0  0  0  0  0  0  0  0  0
    7.5452   -7.4979   16.5202 C   0  0  0  0  0  0  0  0  0  0  0  0
   11.3861   -3.7554   25.0699 He  0  0  0  0  0  0  0  0  0  0  0  0
    9.1396   -4.9756   16.8752 He  0  0  0  0  0  0  0  0  0  0  0  0
    0.3519   -8.0466   18.8338 He  0  0  0  0  0  0  0  0  0  0  0  0
   11.3709   -3.8281   16.4036 He  0  0  0  0  0  0  0  0  0  0  0  0
    2.1223  -10.9188   19.6674 He  0  0  0  0  0  0  0  0  0  0  0  0
    5.5704   -8.0658   15.4202 He  0  0  0  0  0  0  0  0  0  0  0  0
    9.0846   -6.3024   18.0940 He  0  0  0  0  0  0  0  0  0  0  0  0
   11.6793   -3.2912   19.9090 He  0  0  0  0  0  0  0  0  0  0  0  0
   10.0152   -3.6696   16.3003 He  0  0  0  0  0  0  0  0  0  0  0  0
    1.1123  -10.8212   18.2824 He  0  0  0  0  0  0  0  0  0  0  0  0
    8.8736   -7.3929   18.6427 He  0  0  0  0  0  0  0  0  0  0  0  0
   11.0267   -3.5028   18.8176 He  0  0  0  0  0  0  0  0  0  0  0  0
   11.3429   -4.3358   20.4601 He  0  0  0  0  0  0  0  0  0  0  0  0
    6.0492   -8.2585   16.2807 He  0  0  0  0  0  0  0  0  0  0  0  0
  1  6  3  0
  1  8  4  0
  1  9  3  0
  1 12  2  0
  1 14  3  0
  1 18  3  0
  1 20  3  0
  2  6  4  0
  2  8  3  0
  2  9  1  0
  2 16  4  0
  2 18  4  0
  3  4  1  0
  3  9  2  0
  3 13  2  0
  4  8  3  0
  4 12  4  0
  5 10  3  0
  5 11  1  0
  5 15  3  0
  5 17  4  0
  6  7  3  0
  6 11  1  0
  6 16  3  0
  6 19  1  0
  7  8  1  0
  7 10  1  0
  7 11  1  0
  7 12  2  0
  7 13  4  0
  7 15  4  0
  7 16  4  0
  7 17  4  0
  7 19  4  0
  8  9  2  0
  8 11  4  0
  8 12  1  0
  8 16  1  0
  8 18  4  0
  9 10  3  0
  9 13  3  0
  9 16  1  0
  9 18  3  0
  9 20  3  0
 10 16  1  0
 10 18  1  0
 11 17  3  0
 13 17  4  0
 13 19  4  0
 14 15  4  0
 14 16  2  0
 14 20  2  0
 15 16  1  0
 15 17  4  0
 15 20  1  0
 16 17  4  0
 18 19  4  0
 19 20  4  0
M  END
$$$$

 Created by Python create_sdf_string function

 34 26  0  0  0  0  0  0  0  0999 V2000
    8.6650   -7.7306   17.8497 C   0  0  0  0  0  0  0  0  0  0  0  0
   10.9427   -3.9296   25.1125 C   0  0  0  0  0  0  0  0  0  0  0  0
   10.5357   -4.7190   18.8413 C   0  0  0  0  0  0  0  0  0  0  0  0
    2.5076   -8.9001   16.4445 C   0  0  0  0  0  0  0  0  0  0  0  0
    2.0032   -9.5880   17.1775 C   0  0  0  0  0  0  0  0  0  0  0  0
    5.0326   -9.0324   17.7522 O   0  0  0  0  0  0  0  0  0  0  0  0
    2.2676   -8.2453   15.9849 C   0  0  0  0  0  0  0  0  0  0  0  0
   11.4551   -4.9368   24.5527 C   0  0  0  0  0  0  0  0  0  0  0  0
    9.0344   -6.2716   17.2582 C   0  0  0  0  0  0  0  0  0  0  0  0
    8.1376   -6.6864   17.0132 C   0  0  0  0  0  0  0  0  0  0  0  0
    6.8073   -6.4304   15.4976 O   0  0  0  0  0  0  0  0  0  0  0  0
    9.4300   -5.2013   17.0117 C   0  0  0  0  0  0  0  0  0  0  0  0
    0.5157  -10.0053   17.6180 N   0  0  0  0  0  0  0  0  0  0  0  0
   11.0745   -3.4071   16.7065 C   0  0  0  0  0  0  0  0  0  0  0  0
    1.6618  -11.0627   18.8629 N   0  0  0  0  0  0  0  0  0  0  0  0
    5.6039   -8.5549   17.5525 C   0  0  0  0  0  0  0  0  0  0  0  0
    5.4570   -8.0141   15.6912 C   0  0  0  0  0  0  0  0  0  0  0  0
    2.4655  -10.3898   18.0385 C   0  0  0  0  0  0  0  0  0  0  0  0
   11.0090   -4.0434   22.3575 C   0  0  0  0  0  0  0  0  0  0  0  0
    9.2816   -4.4898   16.3389 C   0  0  0  0  0  0  0  0  0  0  0  0
    9.1598   -6.2692   17.7285 C   0  0  0  0  0  0  0  0  0  0  0  0
   11.2988   -3.0419   20.0323 N   0  0  0  0  0  0  0  0  0  0  0  0
   10.4054   -2.9422   24.3860 C   0  0  0  0  0  0  0  0  0  0  0  0
    3.6140   -8.3800   15.8334 C   0  0  0  0  0  0  0  0  0  0  0  0
   10.2165   -3.8920   16.1640 C   0  0  0  0  0  0  0  0  0  0  0  0
   10.5154   -2.9607   23.0521 C   0  0  0  0  0  0  0  0  0  0  0  0
    0.7022  -10.8190   18.5383 N   0  0  0  0  0  0  0  0  0  0  0  0
   10.6129   -5.2026   20.2631 C   0  0  0  0  0  0  0  0  0  0  0  0
    9.2104   -7.7951   18.4078 C   0  0  0  0  0  0  0  0  0  0  0  0
   11.4485   -5.0624   23.1267 C   0  0  0  0  0  0  0  0  0  0  0  0
   11.1047   -3.3997   18.7156 N   0  0  0  0  0  0  0  0  0  0  0  0
   10.9804   -4.0912   20.9526 C   0  0  0  0  0  0  0  0  0  0  0  0
    5.3010   -8.1528   16.1935 N   0  0  0  0  0  0  0  0  0  0  0  0
    7.2172   -7.8937   16.9392 C   0  0  0  0  0  0  0  0  0  0  0  0
  1 29  2  0
  2  8  4  0
  2 23  4  0
  3 28  4  0
  3 31  4  0
  4  5  1  0
  5 13  4  0
  5 18  4  0
  6 16  1  0
  8 30  4  0
  9 12  4  0
 13 27  4  0
 14 25  4  0
 14 31  4  0
 15 18  4  0
 15 27  4  0
 17 33  1  0
 19 26  4  0
 19 30  4  0
 19 32  1  0
 20 25  4  0
 22 31  4  0
 22 32  4  0
 23 26  4  0
 24 33  1  0
 28 32  4  0
M  END
$$$$

 Created by Python create_sdf_string function

 34 86  0  0  0  0  0  0  0  0999 V2000
    8.2517   -9.6314   17.6834 F   0  0  0  0  0  0  0  0  0  0  0  0
   10.4210   -3.6969   25.1078 C   0  0  0  0  0  0  0  0  0  0  0  0
   10.2174   -4.9452   18.9994 C   0  0  0  0  0  0  0  0  0  0  0  0
    3.2101   -8.8702   17.1060 F   0  0  0  0  0  0  0  0  0  0  0  0
    2.1764   -9.6094   17.2333 C   0  0  0  0  0  0  0  0  0  0  0  0
    5.4096   -8.1640   17.3265 O   0  0  0  0  0  0  0  0  0  0  0  0
    1.2487   -6.6767   15.7617 N   0  0  0  0  0  0  0  0  0  0  0  0
   11.4287   -4.9735   24.3979 B   0  0  0  0  0  0  0  0  0  0  0  0
    7.5480   -6.8469   16.9506 F   0  0  0  0  0  0  0  0  0  0  0  0
    0.3868   -8.1684   17.8163 F   0  0  0  0  0  0  0  0  0  0  0  0
   11.0476   -3.8681   17.2420 C   0  0  0  0  0  0  0  0  0  0  0  0
    4.3928  -10.4297   16.8907 F   0  0  0  0  0  0  0  0  0  0  0  0
    2.0645  -10.2350   17.7431 F   0  0  0  0  0  0  0  0  0  0  0  0
   10.9283   -3.7149   22.1474 P   0  0  0  0  0  0  0  0  0  0  0  0
    9.5193   -4.4775   16.4642 C   0  0  0  0  0  0  0  0  0  0  0  0
    6.9983   -5.6376   16.2340 N   0  0  0  0  0  0  0  0  0  0  0  0
   11.6643   -3.3060   20.0032 N   0  0  0  0  0  0  0  0  0  0  0  0
    4.5061   -9.2130   15.7112 C   0  0  0  0  0  0  0  0  0  0  0  0
   10.1159   -4.0801   15.9252 C   0  0  0  0  0  0  0  0  0  0  0  0
    9.9840   -3.1628   23.2215 C   0  0  0  0  0  0  0  0  0  0  0  0
    0.6791  -11.1268   18.7334 Br  0  0  0  0  0  0  0  0  0  0  0  0
   10.8449   -4.6886   20.4078 O   0  0  0  0  0  0  0  0  0  0  0  0
    8.9067   -7.9679   18.0058 C   0  0  0  0  0  0  0  0  0  0  0  0
   11.5553   -5.0930   22.8771 C   0  0  0  0  0  0  0  0  0  0  0  0
   11.2036   -3.4791   18.7791 N   0  0  0  0  0  0  0  0  0  0  0  0
   10.8578   -4.1794   20.6777 C   0  0  0  0  0  0  0  0  0  0  0  0
    4.3281   -8.5481   16.4244 Se  0  0  0  0  0  0  0  0  0  0  0  0
    8.8100   -6.2094   18.1347 He  0  0  0  0  0  0  0  0  0  0  0  0
    8.0982   -6.0299   15.4325 He  0  0  0  0  0  0  0  0  0  0  0  0
    9.5350   -3.6222   18.4640 He  0  0  0  0  0  0  0  0  0  0  0  0
    0.7488  -11.3288   18.6453 He  0  0  0  0  0  0  0  0  0  0  0  0
    5.2616   -9.0778   16.3473 He  0  0  0  0  0  0  0  0  0  0  0  0
   10.6689   -2.9426   24.6023 He  0  0  0  0  0  0  0  0  0  0  0  0
    6.7129   -6.7411   16.5757 He  0  0  0  0  0  0  0  0  0  0  0  0
  1  2  3  0
  1 10  3  0
  1 11  4  0
  1 15  3  0
  1 16  4  0
  1 23  2  0
  2  8  3  0
  3  7  2  0
  3  9  3  0
  3 10  4  0
  3 11  1  0
  3 12  3  0
  3 13  2  0
  3 16  3  0
  3 22  4  0
  3 25  4  0
  4  8  2  0
  4 14  4  0
  4 16  4  0
  4 18  2  0
  4 22  2  0
  5 10  4  0
  5 13  4  0
  5 16  4  0
  5 19  2  0
  6  7  3  0
  6 11  3  0
  6 12  4  0
  6 16  2  0
  6 25  1  0
  7  9  1  0
  7 10  1  0
  7 12  1  0
  7 13  4  0
  7 17  1  0
  7 18  4  0
  8  9  2  0
  8 17  2  0
  8 24  4  0
  9 12  3  0
  9 15  2  0
  9 19  4  0
  9 23  3  0
  9 24  4  0
  9 26  3  0
 10 12  3  0
 10 13  4  0
 10 15  4  0
 10 16  3  0
 10 19  4  0
 10 22  4  0
 10 24  4  0
 11 16  4  0
 11 18  2  0
 11 21  2  0
 11 23  4  0
 11 24  2  0
 11 26  1  0
 12 15  2  0
 12 16  4  0
 12 17  3  0
 12 19  4  0
 12 20  3  0
 12 22  1  0
 12 23  1  0
 12 25  2  0
 13 16  3  0
 14 16  4  0
 14 20  4  0
 14 24  4  0
 14 26  1  0
 14 27  2  0
 15 16  3  0
 15 27  3  0
 16 25  2  0
 16 26  1  0
 17 25  4  0
 17 26  4  0
 18 24  2  0
 19 21  4  0
 20 24  3  0
 21 26  2  0
 21 27  1  0
 22 26  4  0
 24 27  3  0
 25 27  4  0
M  END
$$$$

 Created by Python create_sdf_string function

 34 25  0  0  0  0  0  0  0  0999 V2000
    7.8132   -8.6277   17.1861 C   0  0  0  0  0  0  0  0  0  0  0  0
   10.7442   -3.9191   25.1723 C   0  0  0  0  0  0  0  0  0  0  0  0
   10.4275   -4.5914   18.9409 C   0  0  0  0  0  0  0  0  0  0  0  0
    2.8833   -9.1464   16.8732 C   0  0  0  0  0  0  0  0  0  0  0  0
    1.8316   -9.6995   17.3113 C   0  0  0  0  0  0  0  0  0  0  0  0
    5.6160   -8.1532   17.7053 O   0  0  0  0  0  0  0  0  0  0  0  0
    1.6255   -7.8242   16.1213 C   0  0  0  0  0  0  0  0  0  0  0  0
   11.3291   -4.9318   24.5388 C   0  0  0  0  0  0  0  0  0  0  0  0
    8.9775   -6.1226   17.6949 C   0  0  0  0  0  0  0  0  0  0  0  0
    7.7765   -6.8769   16.9395 C   0  0  0  0  0  0  0  0  0  0  0  0
    7.8569   -6.4323   16.0383 C   0  0  0  0  0  0  0  0  0  0  0  0
    9.8601   -4.9312   17.7574 C   0  0  0  0  0  0  0  0  0  0  0  0
    0.5263   -9.1654   17.1583 C   0  0  0  0  0  0  0  0  0  0  0  0
   11.0860   -3.2839   17.2977 C   0  0  0  0  0  0  0  0  0  0  0  0
    0.6581  -10.8795   18.4090 C   0  0  0  0  0  0  0  0  0  0  0  0
    4.1138   -9.9568   17.5097 C   0  0  0  0  0  0  0  0  0  0  0  0
    5.1590   -8.5480   16.4878 C   0  0  0  0  0  0  0  0  0  0  0  0
    1.9662  -10.4342   17.9384 C   0  0  0  0  0  0  0  0  0  0  0  0
   10.9468   -3.9363   22.4033 C   0  0  0  0  0  0  0  0  0  0  0  0
    9.4851   -4.5790   16.5265 C   0  0  0  0  0  0  0  0  0  0  0  0
    6.8492   -6.2348   15.8117 O   0  0  0  0  0  0  0  0  0  0  0  0
   11.4603   -3.0647   20.1386 N   0  0  0  0  0  0  0  0  0  0  0  0
   10.2349   -2.8949   24.4573 N   0  0  0  0  0  0  0  0  0  0  0  0
    3.8701   -8.4247   16.2229 C   0  0  0  0  0  0  0  0  0  0  0  0
   10.5176   -3.7421   16.1536 C   0  0  0  0  0  0  0  0  0  0  0  0
   10.3692   -2.8719   23.1052 C   0  0  0  0  0  0  0  0  0  0  0  0
    0.5691  -11.0371   18.4929 C   0  0  0  0  0  0  0  0  0  0  0  0
   10.4597   -5.0198   20.3479 C   0  0  0  0  0  0  0  0  0  0  0  0
    8.8710   -8.0343   17.8858 C   0  0  0  0  0  0  0  0  0  0  0  0
   11.4261   -4.9872   23.2039 C   0  0  0  0  0  0  0  0  0  0  0  0
   11.1932   -3.3854   18.7997 N   0  0  0  0  0  0  0  0  0  0  0  0
   10.9895   -3.9729   21.0234 C   0  0  0  0  0  0  0  0  0  0  0  0
    3.9047   -8.4127   16.4103 C   0  0  0  0  0  0  0  0  0  0  0  0
    6.9742   -7.1099   16.4394 C   0  0  0  0  0  0  0  0  0  0  0  0
  1 29  1  0
  2  8  4  0
  2 23  4  0
  3 12  4  0
  3 28  4  0
  3 31  4  0
  5 13  4  0
  5 18  4  0
  8 30  4  0
  9 12  1  0
 10 34  1  0
 12 20  4  0
 14 25  4  0
 14 31  4  0
 15 27  4  0
 17 33  1  0
 19 26  4  0
 19 30  4  0
 19 32  1  0
 20 25  4  0
 21 34  2  0
 22 31  4  0
 22 32  4  0
 23 26  4  0
 28 32  4  0
M  END
$$$$

 Created by Python create_sdf_string function

 34 94  0  0  0  0  0  0  0  0999 V2000
   10.6585   -3.6711   25.3089 C   0  0  0  0  0  0  0  0  0  0  0  0
   10.4953   -4.4756   18.8358 C   0  0  0  0  0  0  0  0  0  0  0  0
    2.0098   -9.8556   17.7433 C   0  0  0  0  0  0  0  0  0  0  0  0
    5.4061   -8.0908   17.7043 O   0  0  0  0  0  0  0  0  0  0  0  0
    0.6205   -9.7847   15.0582 P   0  0  0  0  0  0  0  0  0  0  0  0
   11.3358   -5.1963   24.3221 C   0  0  0  0  0  0  0  0  0  0  0  0
    7.6466   -6.8643   18.3998 F   0  0  0  0  0  0  0  0  0  0  0  0
   10.0716   -3.8187   18.4301 C   0  0  0  0  0  0  0  0  0  0  0  0
    0.4134   -8.8402   18.1576 Se  0  0  0  0  0  0  0  0  0  0  0  0
   10.8836   -2.2352   17.5806 C   0  0  0  0  0  0  0  0  0  0  0  0
    0.4519  -10.0463   19.4396 O   0  0  0  0  0  0  0  0  0  0  0  0
    4.7975   -7.9166   16.9481 C   0  0  0  0  0  0  0  0  0  0  0  0
    2.2537  -10.7163   17.5094 C   0  0  0  0  0  0  0  0  0  0  0  0
    9.6495   -4.2964   16.3757 F   0  0  0  0  0  0  0  0  0  0  0  0
    6.7009   -6.1101   16.2820 C   0  0  0  0  0  0  0  0  0  0  0  0
   11.1211   -3.0876   20.1434 F   0  0  0  0  0  0  0  0  0  0  0  0
   10.0695   -3.2821   24.8263 N   0  0  0  0  0  0  0  0  0  0  0  0
   10.3389   -3.3431   16.4110 C   0  0  0  0  0  0  0  0  0  0  0  0
    0.1069  -10.9709   18.1338 N   0  0  0  0  0  0  0  0  0  0  0  0
   10.1336   -4.9241   20.9799 C   0  0  0  0  0  0  0  0  0  0  0  0
   11.2909   -4.7704   23.4046 C   0  0  0  0  0  0  0  0  0  0  0  0
   11.1797   -3.4826   19.1878 N   0  0  0  0  0  0  0  0  0  0  0  0
   11.7493   -3.7573   20.8687 C   0  0  0  0  0  0  0  0  0  0  0  0
    4.3991   -8.3971   15.2926 F   0  0  0  0  0  0  0  0  0  0  0  0
    6.7762   -7.4890   16.0721 C   0  0  0  0  0  0  0  0  0  0  0  0
    9.2357   -8.3470   16.6999 He  0  0  0  0  0  0  0  0  0  0  0  0
    3.1955  -10.8608   18.1485 He  0  0  0  0  0  0  0  0  0  0  0  0
    9.1766   -5.7091   17.7434 He  0  0  0  0  0  0  0  0  0  0  0  0
    7.1223   -6.6855   15.5011 He  0  0  0  0  0  0  0  0  0  0  0  0
    2.1086  -10.2396   17.3896 He  0  0  0  0  0  0  0  0  0  0  0  0
   11.0206   -4.4105   22.3946 He  0  0  0  0  0  0  0  0  0  0  0  0
    3.1916   -7.8331   15.5655 He  0  0  0  0  0  0  0  0  0  0  0  0
   10.2862   -3.2105   23.1599 He  0  0  0  0  0  0  0  0  0  0  0  0
    8.9975   -8.1101   18.2099 He  0  0  0  0  0  0  0  0  0  0  0  0
  1  6  4  0
  1  9  2  0
  1 10  3  0
  1 11  2  0
  1 12  2  0
  1 14  4  0
  1 17  4  0
  2 12  4  0
  2 16  4  0
  2 18  2  0
  2 20  4  0
  2 21  2  0
  3  8  3  0
  3 10  2  0
  3 12  1  0
  3 13  4  0
  3 16  4  0
  4  7  2  0
  4  8  4  0
  4 11  4  0
  4 15  4  0
  4 25  1  0
  5  9  3  0
  5 11  3  0
  5 15  4  0
  5 16  3  0
  5 19  2  0
  5 20  4  0
  5 22  4  0
  5 23  2  0
  6 13  2  0
  6 21  4  0
  6 24  2  0
  7  8  4  0
  7  9  1  0
  7 10  1  0
  7 11  1  0
  7 12  2  0
  7 20  4  0
  7 22  1  0
  7 25  1  0
  8 12  4  0
  8 18  1  0
  8 19  2  0
  8 22  1  0
  8 25  3  0
  9 10  4  0
  9 13  3  0
  9 14  1  0
  9 16  3  0
  9 22  2  0
  9 23  4  0
  9 24  4  0
 10 12  4  0
 10 13  3  0
 10 14  1  0
 10 17  4  0
 10 18  4  0
 10 20  2  0
 11 12  2  0
 11 13  3  0
 11 14  2  0
 11 15  2  0
 11 17  1  0
 11 21  4  0
 11 23  4  0
 11 24  1  0
 11 25  4  0
 12 14  1  0
 12 18  3  0
 12 19  3  0
 12 22  1  0
 12 24  1  0
 13 14  1  0
 13 15  1  0
 13 17  1  0
 13 18  1  0
 13 25  1  0
 15 16  1  0
 15 17  1  0
 15 18  4  0
 16 23  4  0
 16 25  1  0
 17 22  2  0
 18 24  4  0
 18 25  2  0
 19 20  4  0
 19 22  1  0
 19 25  2  0
 20 23  4  0
 20 25  1  0
 22 25  2  0
 23 25  2  0
 24 25  1  0
M  END
$$$$

 Created by Python create_sdf_string function

 34 33  0  0  0  0  0  0  0  0999 V2000
    8.6153   -7.9723   16.7326 C   0  0  0  0  0  0  0  0  0  0  0  0
   10.6723   -3.9997   25.3413 C   0  0  0  0  0  0  0  0  0  0  0  0
   10.3064   -4.6800   18.9188 C   0  0  0  0  0  0  0  0  0  0  0  0
    2.8310  -10.6583   18.3522 C   0  0  0  0  0  0  0  0  0  0  0  0
    2.5670   -9.7515   17.3190 C   0  0  0  0  0  0  0  0  0  0  0  0
    5.7106   -8.1045   17.8932 O   0  0  0  0  0  0  0  0  0  0  0  0
    1.0718   -9.2321   15.7460 C   0  0  0  0  0  0  0  0  0  0  0  0
   11.3577   -4.9585   24.7264 C   0  0  0  0  0  0  0  0  0  0  0  0
    9.2558   -5.5974   17.6950 C   0  0  0  0  0  0  0  0  0  0  0  0
    7.7160   -6.7879   17.7169 C   0  0  0  0  0  0  0  0  0  0  0  0
    7.4561   -7.0629   15.7327 C   0  0  0  0  0  0  0  0  0  0  0  0
    9.9678   -4.7628   18.0566 C   0  0  0  0  0  0  0  0  0  0  0  0
    0.2052  -10.0962   17.2847 C   0  0  0  0  0  0  0  0  0  0  0  0
   11.0621   -2.9832   17.6806 C   0  0  0  0  0  0  0  0  0  0  0  0
    0.8639  -11.1633   19.1025 C   0  0  0  0  0  0  0  0  0  0  0  0
    1.3240  -10.1239   17.4272 C   0  0  0  0  0  0  0  0  0  0  0  0
    4.1407   -8.7553   16.6336 C   0  0  0  0  0  0  0  0  0  0  0  0
    2.4620  -10.2432   17.8695 C   0  0  0  0  0  0  0  0  0  0  0  0
   10.9196   -3.9928   22.5875 C   0  0  0  0  0  0  0  0  0  0  0  0
    9.6002   -4.2156   16.3466 N   0  0  0  0  0  0  0  0  0  0  0  0
    7.0434   -6.6167   16.0823 C   0  0  0  0  0  0  0  0  0  0  0  0
   11.3897   -3.1036   20.2852 N   0  0  0  0  0  0  0  0  0  0  0  0
   10.1052   -3.0491   24.5983 N   0  0  0  0  0  0  0  0  0  0  0  0
    2.9249   -8.6068   15.8306 C   0  0  0  0  0  0  0  0  0  0  0  0
   10.4948   -3.4625   16.5565 C   0  0  0  0  0  0  0  0  0  0  0  0
   10.2627   -3.0008   23.2983 C   0  0  0  0  0  0  0  0  0  0  0  0
    0.0505  -10.8770   18.3587 N   0  0  0  0  0  0  0  0  0  0  0  0
   10.4626   -5.0423   20.4592 C   0  0  0  0  0  0  0  0  0  0  0  0
    8.7316   -7.6640   17.7046 C   0  0  0  0  0  0  0  0  0  0  0  0
   11.4399   -4.9945   23.3942 C   0  0  0  0  0  0  0  0  0  0  0  0
   11.1006   -3.3219   18.8441 N   0  0  0  0  0  0  0  0  0  0  0  0
   10.9858   -4.0129   21.1543 C   0  0  0  0  0  0  0  0  0  0  0  0
    4.5594   -8.3765   16.0993 C   0  0  0  0  0  0  0  0  0  0  0  0
    6.3822   -7.8463   16.7404 C   0  0  0  0  0  0  0  0  0  0  0  0
  1 11  1  0
  1 29  1  0
  2  8  4  0
  2 23  4  0
  3 12  4  0
  3 28  4  0
  3 31  4  0
  4 15  4  0
  4 18  4  0
  5 17  1  0
  5 18  4  0
  6 34  1  0
  7 24  4  0
  8 30  4  0
  9 12  4  0
 10 29  1  0
 10 34  1  0
 11 21  1  0
 13 27  4  0
 14 25  4  0
 14 31  4  0
 15 27  4  0
 17 24  4  0
 17 33  1  0
 19 26  4  0
 19 30  4  0
 19 32  1  0
 20 25  4  0
 22 31  4  0
 22 32  4  0
 23 26  4  0
 28 32  4  0
 33 34  1  0
M  END
$$$$

 Created by Python create_sdf_string function

 34109  0  0  0  0  0  0  0  0999 V2000
    8.7935   -7.2234   16.3008 F   0  0  0  0  0  0  0  0  0  0  0  0
   11.0460   -3.9815   25.5935 C   0  0  0  0  0  0  0  0  0  0  0  0
    9.5737   -4.7092   18.0835 C   0  0  0  0  0  0  0  0  0  0  0  0
    2.5353   -9.9581   18.2458 F   0  0  0  0  0  0  0  0  0  0  0  0
    2.7142   -9.4898   17.3740 O   0  0  0  0  0  0  0  0  0  0  0  0
    5.8049   -7.9955   17.7621 O   0  0  0  0  0  0  0  0  0  0  0  0
    1.6729  -10.1596   16.2014 C   0  0  0  0  0  0  0  0  0  0  0  0
   11.6763   -4.6475   24.9601 C   0  0  0  0  0  0  0  0  0  0  0  0
    6.8492   -6.8973   16.2649 N   0  0  0  0  0  0  0  0  0  0  0  0
    8.6131   -7.5152   15.3515 P   0  0  0  0  0  0  0  0  0  0  0  0
   10.8970   -3.1311   16.9854 O   0  0  0  0  0  0  0  0  0  0  0  0
    0.4256  -10.5373   18.2762 C   0  0  0  0  0  0  0  0  0  0  0  0
    0.3184  -10.3571   18.0599 I   0  0  0  0  0  0  0  0  0  0  0  0
    2.6519  -10.3036   17.7246 C   0  0  0  0  0  0  0  0  0  0  0  0
   11.2171   -4.0921   22.3650 C   0  0  0  0  0  0  0  0  0  0  0  0
    9.5928   -4.6303   16.4036 N   0  0  0  0  0  0  0  0  0  0  0  0
    6.8986   -6.2362   15.3307 C   0  0  0  0  0  0  0  0  0  0  0  0
   11.0250   -3.0877   20.0109 N   0  0  0  0  0  0  0  0  0  0  0  0
   10.2346   -3.0261   24.6785 N   0  0  0  0  0  0  0  0  0  0  0  0
    2.9671   -9.4826   15.8272 S   0  0  0  0  0  0  0  0  0  0  0  0
   10.8150   -2.5304   16.3511 C   0  0  0  0  0  0  0  0  0  0  0  0
   10.0967   -3.0997   23.2649 Se  0  0  0  0  0  0  0  0  0  0  0  0
    0.0308  -11.0134   17.8844 N   0  0  0  0  0  0  0  0  0  0  0  0
   10.2124   -5.0090   20.6999 C   0  0  0  0  0  0  0  0  0  0  0  0
   11.6768   -4.5270   23.5357 C   0  0  0  0  0  0  0  0  0  0  0  0
   11.5714   -3.7023   18.4408 N   0  0  0  0  0  0  0  0  0  0  0  0
   11.1208   -3.5800   20.8277 C   0  0  0  0  0  0  0  0  0  0  0  0
    4.7981   -6.6623   15.7472 C   0  0  0  0  0  0  0  0  0  0  0  0
    9.2171   -6.5363   16.8562 He  0  0  0  0  0  0  0  0  0  0  0  0
   10.2339   -3.5765   18.1019 He  0  0  0  0  0  0  0  0  0  0  0  0
   -0.0891   -8.9635   15.8210 He  0  0  0  0  0  0  0  0  0  0  0  0
    3.5379   -9.5407   15.8277 He  0  0  0  0  0  0  0  0  0  0  0  0
    9.2190   -8.0378   17.7964 He  0  0  0  0  0  0  0  0  0  0  0  0
    7.2234   -6.1540   16.8121 He  0  0  0  0  0  0  0  0  0  0  0  0
  1  4  1  0
  1  5  3  0
  1  7  2  0
  1 11  4  0
  1 13  4  0
  1 15  2  0
  1 16  3  0
  1 17  3  0
  2  4  4  0
  2  8  4  0
  2 12  1  0
  2 17  4  0
  2 19  4  0
  2 21  3  0
  2 27  4  0
  3  9  2  0
  3 10  3  0
  3 13  2  0
  3 24  4  0
  3 26  4  0
  4  5  1  0
  4  6  1  0
  4 12  1  0
  4 13  3  0
  4 15  2  0
  4 16  4  0
  4 25  1  0
  4 26  3  0
  4 27  3  0
  5  9  1  0
  5 11  3  0
  5 13  3  0
  5 14  4  0
  5 18  3  0
  5 27  4  0
  6  7  1  0
  6 12  2  0
  6 15  1  0
  6 18  1  0
  7 10  4  0
  7 13  2  0
  7 17  1  0
  7 19  3  0
  7 20  2  0
  7 21  2  0
  7 23  3  0
  7 24  3  0
  7 27  2  0
  8 15  2  0
  8 17  1  0
  8 25  4  0
  8 28  3  0
  9 13  4  0
  9 14  2  0
  9 21  3  0
  9 22  4  0
  9 24  1  0
 10 13  3  0
 10 16  3  0
 10 17  1  0
 10 24  1  0
 10 28  1  0
 11 12  3  0
 11 16  3  0
 11 19  4  0
 11 22  2  0
 11 23  3  0
 11 26  3  0
 11 27  2  0
 11 28  3  0
 12 19  2  0
 12 24  4  0
 12 25  1  0
 12 26  1  0
 12 28  4  0
 13 14  1  0
 13 15  1  0
 13 19  3  0
 13 20  4  0
 13 23  2  0
 13 24  4  0
 14 15  4  0
 15 17  2  0
 15 19  1  0
 15 22  4  0
 15 26  2  0
 15 27  1  0
 16 17  3  0
 16 21  4  0
 16 23  4  0
 17 24  4  0
 17 25  2  0
 17 26  4  0
 17 27  2  0
 17 28  1  0
 18 26  4  0
 19 23  2  0
 20 21  2  0
 20 24  2  0
 20 26  1  0
 20 28  2  0
 21 28  2  0
 22 25  2  0
 22 26  2  0
 23 25  2  0
 23 27  1  0
 24 27  4  0
 25 28  4  0
 27 28  2  0
M  END
$$$$

 Created by Python create_sdf_string function

 34 34  0  0  0  0  0  0  0  0999 V2000
    8.6821   -7.0097   16.9343 C   0  0  0  0  0  0  0  0  0  0  0  0
   10.8960   -3.8079   25.4040 C   0  0  0  0  0  0  0  0  0  0  0  0
   10.1858   -4.8171   19.0426 C   0  0  0  0  0  0  0  0  0  0  0  0
    2.3614  -10.5839   18.3220 C   0  0  0  0  0  0  0  0  0  0  0  0
    3.4255   -9.6950   17.5643 C   0  0  0  0  0  0  0  0  0  0  0  0
    5.8322   -7.8464   17.9494 O   0  0  0  0  0  0  0  0  0  0  0  0
    1.6405   -9.5155   16.2636 C   0  0  0  0  0  0  0  0  0  0  0  0
   11.6844   -4.6667   24.7429 C   0  0  0  0  0  0  0  0  0  0  0  0
    9.0762   -5.9031   16.8919 C   0  0  0  0  0  0  0  0  0  0  0  0
    6.5745   -7.3013   16.6710 N   0  0  0  0  0  0  0  0  0  0  0  0
    8.0524   -7.4795   15.5459 C   0  0  0  0  0  0  0  0  0  0  0  0
   10.4846   -4.2005   18.2417 C   0  0  0  0  0  0  0  0  0  0  0  0
    0.3793   -9.7610   15.9358 C   0  0  0  0  0  0  0  0  0  0  0  0
   11.0234   -3.2667   17.1891 C   0  0  0  0  0  0  0  0  0  0  0  0
    0.6135  -10.9862   18.4814 C   0  0  0  0  0  0  0  0  0  0  0  0
    0.2731  -10.7326   17.7629 C   0  0  0  0  0  0  0  0  0  0  0  0
    3.8456   -8.6324   16.1834 C   0  0  0  0  0  0  0  0  0  0  0  0
    2.3297   -9.9083   17.3538 C   0  0  0  0  0  0  0  0  0  0  0  0
   10.9272   -3.8906   22.5403 C   0  0  0  0  0  0  0  0  0  0  0  0
    9.5553   -4.8509   16.3891 N   0  0  0  0  0  0  0  0  0  0  0  0
    6.6208   -7.1194   15.4662 C   0  0  0  0  0  0  0  0  0  0  0  0
   11.2766   -3.0396   20.1766 N   0  0  0  0  0  0  0  0  0  0  0  0
   10.1435   -2.9684   24.6583 N   0  0  0  0  0  0  0  0  0  0  0  0
    2.8728   -8.8399   15.5884 C   0  0  0  0  0  0  0  0  0  0  0  0
   10.5501   -3.6880   16.3229 C   0  0  0  0  0  0  0  0  0  0  0  0
   10.1916   -2.9688   23.2822 C   0  0  0  0  0  0  0  0  0  0  0  0
   -0.3494  -10.9283   17.5774 N   0  0  0  0  0  0  0  0  0  0  0  0
   10.3446   -4.9730   20.4856 C   0  0  0  0  0  0  0  0  0  0  0  0
    9.1641   -7.9618   17.7119 C   0  0  0  0  0  0  0  0  0  0  0  0
   11.6576   -4.7120   23.3605 C   0  0  0  0  0  0  0  0  0  0  0  0
   11.0444   -3.1799   18.7153 N   0  0  0  0  0  0  0  0  0  0  0  0
   10.8747   -3.9563   21.0917 C   0  0  0  0  0  0  0  0  0  0  0  0
    5.0620   -7.7898   15.7044 C   0  0  0  0  0  0  0  0  0  0  0  0
    6.9081   -6.9709   16.7447 C   0  0  0  0  0  0  0  0  0  0  0  0
  1  9  1  0
  1 11  1  0
  1 29  1  0
  2  8  4  0
  2 23  4  0
  3 12  4  0
  3 28  4  0
  4  5  4  0
  4 15  4  0
  5 17  4  0
  5 18  4  0
  7 13  4  0
  7 18  4  0
  7 24  4  0
  8 30  4  0
  9 20  4  0
 10 34  1  0
 11 21  1  0
 12 31  4  0
 14 25  4  0
 14 31  4  0
 15 16  4  0
 16 27  2  0
 17 24  4  0
 17 33  1  0
 19 26  4  0
 19 30  4  0
 19 32  1  0
 20 25  4  0
 21 33  1  0
 22 31  4  0
 22 32  4  0
 23 26  4  0
 28 32  4  0
M  END
$$$$

 Created by Python create_sdf_string function

 34 72  0  0  0  0  0  0  0  0999 V2000
   10.6566   -3.5031   26.0360 C   0  0  0  0  0  0  0  0  0  0  0  0
    2.4192  -10.1577   18.9086 N   0  0  0  0  0  0  0  0  0  0  0  0
    3.5782  -10.1662   17.4337 C   0  0  0  0  0  0  0  0  0  0  0  0
    5.8375   -7.6581   18.1900 O   0  0  0  0  0  0  0  0  0  0  0  0
   12.1198   -4.6641   24.7722 O   0  0  0  0  0  0  0  0  0  0  0  0
    9.6317   -6.1855   16.9108 B   0  0  0  0  0  0  0  0  0  0  0  0
   10.2169   -3.5499   16.8817 C   0  0  0  0  0  0  0  0  0  0  0  0
   -0.1002   -9.3698   16.5596 S   0  0  0  0  0  0  0  0  0  0  0  0
    9.7319   -4.1630   16.4950 F   0  0  0  0  0  0  0  0  0  0  0  0
    0.4208  -10.8291   17.2913 C   0  0  0  0  0  0  0  0  0  0  0  0
   -1.5492   -9.5811   17.9367 F   0  0  0  0  0  0  0  0  0  0  0  0
    2.6960   -9.7964   17.2631 C   0  0  0  0  0  0  0  0  0  0  0  0
   11.1780   -3.5161   22.3254 C   0  0  0  0  0  0  0  0  0  0  0  0
    9.7181   -4.8132   16.2812 Cl  0  0  0  0  0  0  0  0  0  0  0  0
   10.7358   -2.8237   20.2902 N   0  0  0  0  0  0  0  0  0  0  0  0
   10.1599   -3.0087   24.9134 N   0  0  0  0  0  0  0  0  0  0  0  0
   10.4208   -4.0765   15.6862 C   0  0  0  0  0  0  0  0  0  0  0  0
   10.1583   -3.5207   23.1814 C   0  0  0  0  0  0  0  0  0  0  0  0
   -0.4996  -10.7820   17.4770 N   0  0  0  0  0  0  0  0  0  0  0  0
    9.0725   -7.6741   17.4501 C   0  0  0  0  0  0  0  0  0  0  0  0
   11.5133   -3.4278   19.0262 N   0  0  0  0  0  0  0  0  0  0  0  0
    6.1353   -7.4887   15.6495 C   0  0  0  0  0  0  0  0  0  0  0  0
    5.6359   -6.7426   17.0609 F   0  0  0  0  0  0  0  0  0  0  0  0
    8.0497   -6.1101   17.6841 He  0  0  0  0  0  0  0  0  0  0  0  0
    9.8759   -4.8467   19.3051 He  0  0  0  0  0  0  0  0  0  0  0  0
    0.8973   -8.9554   16.6326 He  0  0  0  0  0  0  0  0  0  0  0  0
    6.6127   -8.8228   17.4083 He  0  0  0  0  0  0  0  0  0  0  0  0
    8.9902   -7.5362   14.5494 He  0  0  0  0  0  0  0  0  0  0  0  0
    4.1126   -8.3279   16.4800 He  0  0  0  0  0  0  0  0  0  0  0  0
    4.9823   -5.7730   15.2400 He  0  0  0  0  0  0  0  0  0  0  0  0
    3.8329  -10.0476   15.0051 He  0  0  0  0  0  0  0  0  0  0  0  0
   10.4144   -4.9259   20.5561 He  0  0  0  0  0  0  0  0  0  0  0  0
   11.1633   -4.4463   23.1333 He  0  0  0  0  0  0  0  0  0  0  0  0
   10.3056   -3.6070   21.2207 He  0  0  0  0  0  0  0  0  0  0  0  0
  1  5  2  0
  1  7  4  0
  1 10  4  0
  1 11  2  0
  1 16  4  0
  1 17  2  0
  1 18  1  0
  2  4  2  0
  2  6  4  0
  2  9  3  0
  2 10  4  0
  2 11  4  0
  2 18  4  0
  2 23  1  0
  3  6  3  0
  3  7  1  0
  3 10  1  0
  3 11  4  0
  3 12  1  0
  4  8  1  0
  4  9  2  0
  4 21  4  0
  4 23  1  0
  5  7  2  0
  5  8  1  0
  6  7  1  0
  6  8  4  0
  6 10  3  0
  6 12  4  0
  6 16  3  0
  6 18  3  0
  6 20  4  0
  7 12  2  0
  7 13  4  0
  7 14  2  0
  7 20  2  0
  8 13  2  0
  8 16  4  0
  8 19  3  0
  8 20  3  0
  8 23  2  0
  9 11  2  0
  9 17  4  0
  9 19  2  0
  9 21  1  0
  9 22  4  0
 10 15  2  0
 10 16  2  0
 10 17  4  0
 10 19  4  0
 10 20  4  0
 10 21  4  0
 10 22  4  0
 10 23  1  0
 11 17  3  0
 11 18  1  0
 11 19  2  0
 11 22  3  0
 13 17  3  0
 13 18  4  0
 13 22  4  0
 14 17  4  0
 15 16  4  0
 15 21  4  0
 15 23  4  0
 16 18  4  0
 16 19  3  0
 16 22  4  0
 17 22  1  0
 17 23  1  0
 18 21  4  0
 20 22  2  0
M  END
$$$$

 Created by Python create_sdf_string function

 34 30  0  0  0  0  0  0  0  0999 V2000
    8.2175   -6.7317   17.0523 C   0  0  0  0  0  0  0  0  0  0  0  0
   10.8728   -3.7895   25.4108 C   0  0  0  0  0  0  0  0  0  0  0  0
   10.0677   -4.9705   19.0683 C   0  0  0  0  0  0  0  0  0  0  0  0
    2.0021  -10.6665   18.2388 N   0  0  0  0  0  0  0  0  0  0  0  0
    3.4694   -9.8343   17.5893 C   0  0  0  0  0  0  0  0  0  0  0  0
    5.7499   -7.9106   17.8319 O   0  0  0  0  0  0  0  0  0  0  0  0
    1.3001   -9.3311   16.4868 C   0  0  0  0  0  0  0  0  0  0  0  0
   11.5873   -4.6437   24.7416 C   0  0  0  0  0  0  0  0  0  0  0  0
    9.2956   -5.7470   17.1305 C   0  0  0  0  0  0  0  0  0  0  0  0
    6.7356   -8.3503   16.8979 C   0  0  0  0  0  0  0  0  0  0  0  0
    8.1983   -7.5046   15.3900 C   0  0  0  0  0  0  0  0  0  0  0  0
   10.4004   -4.1302   18.2503 C   0  0  0  0  0  0  0  0  0  0  0  0
    0.2669   -9.5022   16.6537 C   0  0  0  0  0  0  0  0  0  0  0  0
   10.0634   -4.3336   16.5443 C   0  0  0  0  0  0  0  0  0  0  0  0
    0.7137  -10.6652   17.9215 C   0  0  0  0  0  0  0  0  0  0  0  0
   -1.2241  -10.0801   17.4701 C   0  0  0  0  0  0  0  0  0  0  0  0
    4.2927   -8.4717   16.4241 C   0  0  0  0  0  0  0  0  0  0  0  0
    2.5877   -9.5867   17.0710 C   0  0  0  0  0  0  0  0  0  0  0  0
   10.7799   -3.7919   22.6259 C   0  0  0  0  0  0  0  0  0  0  0  0
    9.6224   -4.8670   16.3391 N   0  0  0  0  0  0  0  0  0  0  0  0
    5.5809   -7.0123   15.3006 C   0  0  0  0  0  0  0  0  0  0  0  0
   11.1059   -2.9403   20.2887 N   0  0  0  0  0  0  0  0  0  0  0  0
   10.1141   -2.8852   24.7489 N   0  0  0  0  0  0  0  0  0  0  0  0
    3.6548   -8.7772   15.7532 C   0  0  0  0  0  0  0  0  0  0  0  0
   10.2530   -3.9440   16.1877 C   0  0  0  0  0  0  0  0  0  0  0  0
   10.1123   -2.8529   23.3759 C   0  0  0  0  0  0  0  0  0  0  0  0
   -0.4426  -10.9203   17.7257 N   0  0  0  0  0  0  0  0  0  0  0  0
   10.2742   -5.0116   20.5368 C   0  0  0  0  0  0  0  0  0  0  0  0
    8.9732   -7.5911   17.5153 C   0  0  0  0  0  0  0  0  0  0  0  0
   11.5037   -4.7051   23.3792 C   0  0  0  0  0  0  0  0  0  0  0  0
   10.9733   -3.0165   18.8353 N   0  0  0  0  0  0  0  0  0  0  0  0
   10.7261   -3.8744   21.1708 C   0  0  0  0  0  0  0  0  0  0  0  0
    6.2830   -7.6792   15.6238 C   0  0  0  0  0  0  0  0  0  0  0  0
    5.9686   -7.4490   17.0091 C   0  0  0  0  0  0  0  0  0  0  0  0
  1  9  4  0
  1 29  1  0
  2  8  4  0
  2 23  4  0
  3 12  4  0
  3 28  4  0
  4  5  4  0
  4 15  4  0
  5 18  4  0
  6 10  1  0
  6 34  1  0
  7 13  4  0
  7 18  4  0
  8 30  4  0
  9 20  4  0
 10 33  1  0
 12 31  4  0
 14 25  4  0
 15 27  4  0
 16 27  4  0
 17 24  1  0
 19 26  4  0
 19 30  4  0
 19 32  1  0
 20 25  4  0
 21 33  1  0
 22 31  4  0
 22 32  4  0
 23 26  4  0
 28 32  4  0
M  END
$$$$

 Created by Python create_sdf_string function

 34 76  0  0  0  0  0  0  0  0999 V2000
   11.5314   -4.2321   24.9195 C   0  0  0  0  0  0  0  0  0  0  0  0
   10.2827   -4.6557   18.8864 F   0  0  0  0  0  0  0  0  0  0  0  0
    1.7636  -10.7608   17.4310 N   0  0  0  0  0  0  0  0  0  0  0  0
    3.2158   -9.0395   17.7791 C   0  0  0  0  0  0  0  0  0  0  0  0
    5.5205   -8.1896   17.3984 N   0  0  0  0  0  0  0  0  0  0  0  0
    2.3920   -9.9845   16.8669 Cl  0  0  0  0  0  0  0  0  0  0  0  0
   11.4339   -4.5731   24.9621 C   0  0  0  0  0  0  0  0  0  0  0  0
    5.6469   -9.1188   17.9643 C   0  0  0  0  0  0  0  0  0  0  0  0
   -0.6748   -9.1911   15.8611 C   0  0  0  0  0  0  0  0  0  0  0  0
   11.1744   -4.1412   15.9342 C   0  0  0  0  0  0  0  0  0  0  0  0
    1.4986  -10.2349   19.4845 C   0  0  0  0  0  0  0  0  0  0  0  0
    2.4232   -9.2830   17.7307 C   0  0  0  0  0  0  0  0  0  0  0  0
   10.9872   -4.1080   22.5975 C   0  0  0  0  0  0  0  0  0  0  0  0
    9.8842   -5.3161   16.2619 N   0  0  0  0  0  0  0  0  0  0  0  0
    5.6105   -7.1517   16.2604 C   0  0  0  0  0  0  0  0  0  0  0  0
   10.8876   -2.8138   20.5609 N   0  0  0  0  0  0  0  0  0  0  0  0
   10.2594   -2.5961   24.6494 C   0  0  0  0  0  0  0  0  0  0  0  0
   10.3276   -3.1426   16.0856 C   0  0  0  0  0  0  0  0  0  0  0  0
    9.8364   -3.1665   23.5622 C   0  0  0  0  0  0  0  0  0  0  0  0
   -0.2482  -10.8254   17.2792 N   0  0  0  0  0  0  0  0  0  0  0  0
    9.9905   -4.9011   20.3920 C   0  0  0  0  0  0  0  0  0  0  0  0
    8.5906   -8.0294   17.4246 F   0  0  0  0  0  0  0  0  0  0  0  0
   11.2752   -4.6785   23.1010 C   0  0  0  0  0  0  0  0  0  0  0  0
   11.1842   -2.5305   18.7894 N   0  0  0  0  0  0  0  0  0  0  0  0
    6.2426   -7.4753   15.2537 C   0  0  0  0  0  0  0  0  0  0  0  0
    7.7592   -8.2149   17.4439 He  0  0  0  0  0  0  0  0  0  0  0  0
    7.6008   -5.2667   17.8365 He  0  0  0  0  0  0  0  0  0  0  0  0
    7.8881   -7.2653   15.4604 He  0  0  0  0  0  0  0  0  0  0  0  0
   10.4826   -4.7392   17.4486 He  0  0  0  0  0  0  0  0  0  0  0  0
   -1.2247   -9.4218   18.2754 He  0  0  0  0  0  0  0  0  0  0  0  0
    3.8342   -8.6156   16.6917 He  0  0  0  0  0  0  0  0  0  0  0  0
    2.6177   -8.5869   16.3981 He  0  0  0  0  0  0  0  0  0  0  0  0
   10.5730   -4.7968   21.5269 He  0  0  0  0  0  0  0  0  0  0  0  0
    6.9692   -6.9482   16.9276 He  0  0  0  0  0  0  0  0  0  0  0  0
  1  6  4  0
  1  7  4  0
  1 17  4  0
  2  3  4  0
  2 10  1  0
  2 13  4  0
  2 15  4  0
  2 18  3  0
  2 21  4  0
  3  7  4  0
  3  8  1  0
  3 10  4  0
  3 11  4  0
  3 12  3  0
  3 13  2  0
  3 14  4  0
  3 18  1  0
  3 23  2  0
  3 24  3  0
  4  6  4  0
  4  8  4  0
  4 12  3  0
  4 15  4  0
  4 20  4  0
  5 10  1  0
  5 11  4  0
  5 24  4  0
  6  8  4  0
  6  9  4  0
  6 10  3  0
  6 13  1  0
  6 17  1  0
  6 18  1  0
  6 19  1  0
  6 21  2  0
  6 24  1  0
  6 25  1  0
  7  8  2  0
  7 11  2  0
  7 12  3  0
  7 21  4  0
  7 23  4  0
  8 15  3  0
  8 17  3  0
  8 19  1  0
  8 20  4  0
  8 22  4  0
  8 23  2  0
  8 24  2  0
  9 12  2  0
  9 16  3  0
  9 18  1  0
  9 21  4  0
 10 12  2  0
 10 13  1  0
 10 16  1  0
 10 17  2  0
 10 21  2  0
 11 12  4  0
 11 15  1  0
 11 17  3  0
 11 18  4  0
 11 21  2  0
 11 22  1  0
 11 23  2  0
 13 17  4  0
 13 23  4  0
 14 18  2  0
 15 16  2  0
 15 19  4  0
 15 25  1  0
 17 19  4  0
 17 22  4  0
 18 21  2  0
 21 24  4  0
 24 25  4  0
M  END
$$$$

 Created by Python create_sdf_string function

 34 35  0  0  0  0  0  0  0  0999 V2000
    7.5357   -8.3138   17.4083 C   0  0  0  0  0  0  0  0  0  0  0  0
   11.1052   -3.8944   25.3237 C   0  0  0  0  0  0  0  0  0  0  0  0
   10.4919   -4.3246   18.9912 C   0  0  0  0  0  0  0  0  0  0  0  0
    1.4610  -10.6806   18.3771 N   0  0  0  0  0  0  0  0  0  0  0  0
    3.4013   -9.5415   17.5443 C   0  0  0  0  0  0  0  0  0  0  0  0
    5.4783   -8.3599   17.2039 N   0  0  0  0  0  0  0  0  0  0  0  0
    1.7463   -9.2518   16.6279 C   0  0  0  0  0  0  0  0  0  0  0  0
   11.6424   -4.8966   24.5999 C   0  0  0  0  0  0  0  0  0  0  0  0
    9.1782   -5.5855   17.3143 C   0  0  0  0  0  0  0  0  0  0  0  0
    5.3115   -8.9882   17.7627 C   0  0  0  0  0  0  0  0  0  0  0  0
    7.8135   -7.2116   15.6865 C   0  0  0  0  0  0  0  0  0  0  0  0
   10.1486   -4.7013   17.8522 C   0  0  0  0  0  0  0  0  0  0  0  0
    0.1207   -9.6138   16.5735 C   0  0  0  0  0  0  0  0  0  0  0  0
   10.7891   -3.7533   16.7316 C   0  0  0  0  0  0  0  0  0  0  0  0
    1.5471  -10.8074   18.5416 C   0  0  0  0  0  0  0  0  0  0  0  0
   -0.6523  -10.2381   17.7593 C   0  0  0  0  0  0  0  0  0  0  0  0
    3.8676   -8.5660   16.6184 C   0  0  0  0  0  0  0  0  0  0  0  0
    2.4226  -10.0908   17.8231 C   0  0  0  0  0  0  0  0  0  0  0  0
   10.7565   -3.9782   22.5701 C   0  0  0  0  0  0  0  0  0  0  0  0
    9.3328   -5.1385   16.3611 N   0  0  0  0  0  0  0  0  0  0  0  0
    6.1475   -7.3806   15.9390 C   0  0  0  0  0  0  0  0  0  0  0  0
   11.1037   -2.9915   20.4802 N   0  0  0  0  0  0  0  0  0  0  0  0
   10.3248   -2.9177   24.7322 C   0  0  0  0  0  0  0  0  0  0  0  0
    2.6851   -8.6595   16.1237 C   0  0  0  0  0  0  0  0  0  0  0  0
   10.4034   -3.9115   16.0878 C   0  0  0  0  0  0  0  0  0  0  0  0
   10.2015   -2.8936   23.3005 C   0  0  0  0  0  0  0  0  0  0  0  0
   -0.6619  -10.7475   17.5310 N   0  0  0  0  0  0  0  0  0  0  0  0
   10.3550   -4.9584   20.2517 C   0  0  0  0  0  0  0  0  0  0  0  0
    8.6216   -7.8058   17.5113 C   0  0  0  0  0  0  0  0  0  0  0  0
   11.4249   -4.9637   23.2322 C   0  0  0  0  0  0  0  0  0  0  0  0
   11.0681   -3.0533   19.1942 N   0  0  0  0  0  0  0  0  0  0  0  0
   10.7088   -4.0385   21.1581 C   0  0  0  0  0  0  0  0  0  0  0  0
    6.2927   -7.6012   15.5346 C   0  0  0  0  0  0  0  0  0  0  0  0
    7.5251   -6.8212   16.9585 C   0  0  0  0  0  0  0  0  0  0  0  0
  1 29  1  0
  2  8  4  0
  2 23  4  0
  3 12  4  0
  3 28  4  0
  3 31  4  0
  4 15  4  0
  4 18  4  0
  5 10  4  0
  5 17  4  0
  5 18  4  0
  6 10  1  0
  7 13  4  0
  7 24  4  0
  8 30  4  0
  9 12  4  0
  9 20  4  0
 11 21  1  0
 11 34  1  0
 12 14  4  0
 13 16  4  0
 13 27  4  0
 14 25  4  0
 15 18  4  0
 16 27  4  0
 17 24  4  0
 19 26  4  0
 19 30  4  0
 19 32  1  0
 20 25  4  0
 21 33  1  0
 22 31  4  0
 22 32  4  0
 23 26  4  0
 28 32  4  0
M  END
$$$$

 Created by Python create_sdf_string function

 34103  0  0  0  0  0  0  0  0999 V2000
    8.3559   -8.2938   15.8123 O   0  0  0  0  0  0  0  0  0  0  0  0
   10.4991   -4.3749   18.4759 C   0  0  0  0  0  0  0  0  0  0  0  0
    2.3406  -10.6036   18.5657 Cl  0  0  0  0  0  0  0  0  0  0  0  0
    3.1204   -9.3805   17.6811 C   0  0  0  0  0  0  0  0  0  0  0  0
    5.0948   -8.4415   17.1838 N   0  0  0  0  0  0  0  0  0  0  0  0
    2.1765   -9.4288   19.3563 O   0  0  0  0  0  0  0  0  0  0  0  0
   11.4740   -4.7099   25.0930 C   0  0  0  0  0  0  0  0  0  0  0  0
    9.9548   -5.5506   16.6957 O   0  0  0  0  0  0  0  0  0  0  0  0
    5.6507   -8.6378   17.5829 C   0  0  0  0  0  0  0  0  0  0  0  0
    7.5734   -7.9518   15.8945 C   0  0  0  0  0  0  0  0  0  0  0  0
    8.8351   -4.8261   18.2335 N   0  0  0  0  0  0  0  0  0  0  0  0
   10.5713   -3.0823   16.3998 C   0  0  0  0  0  0  0  0  0  0  0  0
   -1.1126  -10.2836   17.9909 P   0  0  0  0  0  0  0  0  0  0  0  0
    3.8697   -9.4400   16.2563 C   0  0  0  0  0  0  0  0  0  0  0  0
    2.3453   -9.9292   17.2703 C   0  0  0  0  0  0  0  0  0  0  0  0
   10.8508   -3.8301   22.4126 C   0  0  0  0  0  0  0  0  0  0  0  0
    6.2194   -7.2679   16.0672 N   0  0  0  0  0  0  0  0  0  0  0  0
   10.9202   -3.2020   20.5019 N   0  0  0  0  0  0  0  0  0  0  0  0
   10.0552   -2.7149   23.8494 C   0  0  0  0  0  0  0  0  0  0  0  0
   10.4220   -4.4472   16.2528 C   0  0  0  0  0  0  0  0  0  0  0  0
   10.0097   -2.9193   23.3638 C   0  0  0  0  0  0  0  0  0  0  0  0
   -0.6916  -10.6755   17.6069 N   0  0  0  0  0  0  0  0  0  0  0  0
   10.5723   -4.7849   19.9657 C   0  0  0  0  0  0  0  0  0  0  0  0
    8.8740   -7.8541   17.6500 C   0  0  0  0  0  0  0  0  0  0  0  0
   11.4228   -5.1483   23.1403 C   0  0  0  0  0  0  0  0  0  0  0  0
   10.5861   -3.0543   19.1059 O   0  0  0  0  0  0  0  0  0  0  0  0
    6.0442   -6.8878   16.5760 C   0  0  0  0  0  0  0  0  0  0  0  0
    7.0770   -6.3385   15.7880 O   0  0  0  0  0  0  0  0  0  0  0  0
   10.8630   -4.3357   25.2008 He  0  0  0  0  0  0  0  0  0  0  0  0
   -0.2120  -10.0374   17.0313 He  0  0  0  0  0  0  0  0  0  0  0  0
    2.0270  -11.3683   18.6797 He  0  0  0  0  0  0  0  0  0  0  0  0
    9.1145   -5.2753   16.3059 He  0  0  0  0  0  0  0  0  0  0  0  0
    2.8076   -7.4179   15.5233 He  0  0  0  0  0  0  0  0  0  0  0  0
   10.2880   -3.4953   20.9642 He  0  0  0  0  0  0  0  0  0  0  0  0
  1  3  2  0
  1  6  4  0
  1 12  4  0
  1 17  2  0
  1 19  1  0
  2  3  3  0
  2  4  2  0
  2  9  3  0
  2 17  3  0
  2 23  4  0
  2 26  4  0
  3  4  4  0
  3 11  2  0
  3 15  4  0
  3 16  3  0
  3 17  1  0
  3 27  2  0
  3 28  3  0
  4 10  4  0
  4 13  4  0
  4 22  2  0
  4 27  3  0
  5  6  4  0
  5  8  4  0
  5 10  1  0
  5 12  3  0
  5 13  4  0
  5 15  2  0
  5 25  4  0
  6  7  3  0
  6  8  4  0
  6 12  3  0
  6 16  3  0
  6 18  1  0
  6 22  1  0
  6 25  3  0
  6 26  2  0
  6 27  4  0
  7 13  4  0
  7 14  4  0
  7 16  4  0
  7 17  3  0
  7 18  1  0
  7 22  1  0
  7 25  4  0
  7 26  2  0
  7 27  1  0
  7 28  3  0
  8 10  2  0
  8 13  1  0
  8 14  3  0
  9 10  3  0
  9 13  3  0
  9 15  4  0
  9 18  2  0
  9 23  2  0
  9 24  1  0
 10 11  3  0
 10 13  2  0
 10 14  1  0
 10 18  4  0
 10 22  1  0
 10 23  3  0
 10 27  1  0
 11 12  4  0
 11 16  4  0
 11 17  3  0
 11 18  3  0
 11 22  2  0
 11 23  2  0
 11 25  1  0
 11 28  4  0
 12 17  1  0
 12 19  1  0
 12 20  4  0
 12 21  3  0
 12 27  4  0
 13 14  4  0
 13 17  2  0
 13 20  3  0
 13 21  2  0
 14 16  2  0
 14 21  2  0
 15 16  2  0
 16 17  1  0
 16 20  3  0
 16 21  4  0
 16 24  1  0
 16 25  4  0
 16 27  1  0
 16 28  1  0
 17 18  3  0
 17 19  1  0
 17 22  3  0
 17 27  1  0
 17 28  3  0
 18 19  3  0
 18 24  4  0
 20 24  2  0
 20 25  4  0
 21 24  1  0
 24 27  2  0
 26 28  2  0
M  END
$$$$

 Created by Python create_sdf_string function

 34 34  0  0  0  0  0  0  0  0999 V2000
    8.3198   -8.2416   15.9323 C   0  0  0  0  0  0  0  0  0  0  0  0
   10.8220   -3.9640   25.2911 C   0  0  0  0  0  0  0  0  0  0  0  0
   10.4576   -4.1705   18.7349 C   0  0  0  0  0  0  0  0  0  0  0  0
    2.6009  -10.6237   18.1845 C   0  0  0  0  0  0  0  0  0  0  0  0
    3.0687   -9.5090   17.2073 C   0  0  0  0  0  0  0  0  0  0  0  0
    5.2956   -8.7203   17.1815 N   0  0  0  0  0  0  0  0  0  0  0  0
    1.4253  -11.0087   18.5656 C   0  0  0  0  0  0  0  0  0  0  0  0
   11.4130   -4.9192   24.5472 C   0  0  0  0  0  0  0  0  0  0  0  0
    9.4597   -5.4911   17.0429 C   0  0  0  0  0  0  0  0  0  0  0  0
    6.1180   -8.6143   17.4442 C   0  0  0  0  0  0  0  0  0  0  0  0
    7.4952   -7.8571   16.1626 C   0  0  0  0  0  0  0  0  0  0  0  0
    9.5961   -5.3639   17.8832 C   0  0  0  0  0  0  0  0  0  0  0  0
    0.4602   -9.9252   17.2266 C   0  0  0  0  0  0  0  0  0  0  0  0
   10.6616   -3.7959   16.5575 C   0  0  0  0  0  0  0  0  0  0  0  0
    1.6316  -11.2336   18.7828 C   0  0  0  0  0  0  0  0  0  0  0  0
   -0.4875  -10.5451   17.7258 C   0  0  0  0  0  0  0  0  0  0  0  0
    3.9699   -8.7503   16.7312 C   0  0  0  0  0  0  0  0  0  0  0  0
    2.0018   -9.7895   17.2541 C   0  0  0  0  0  0  0  0  0  0  0  0
   10.7737   -3.8524   22.5045 C   0  0  0  0  0  0  0  0  0  0  0  0
    9.3304   -5.0576   16.5809 C   0  0  0  0  0  0  0  0  0  0  0  0
    6.0433   -7.3912   16.2423 N   0  0  0  0  0  0  0  0  0  0  0  0
   10.9949   -2.8884   20.3175 N   0  0  0  0  0  0  0  0  0  0  0  0
   10.1848   -2.9372   24.7141 C   0  0  0  0  0  0  0  0  0  0  0  0
    3.4806   -8.0007   16.0289 O   0  0  0  0  0  0  0  0  0  0  0  0
   10.4346   -3.8816   16.4720 C   0  0  0  0  0  0  0  0  0  0  0  0
   10.1977   -2.8044   23.2863 C   0  0  0  0  0  0  0  0  0  0  0  0
   -0.5726  -11.0374   18.1610 N   0  0  0  0  0  0  0  0  0  0  0  0
   10.4112   -4.8590   20.2615 C   0  0  0  0  0  0  0  0  0  0  0  0
    8.4055   -7.9312   17.4838 C   0  0  0  0  0  0  0  0  0  0  0  0
   11.3507   -4.8955   23.1540 C   0  0  0  0  0  0  0  0  0  0  0  0
   10.9228   -2.9985   18.9210 N   0  0  0  0  0  0  0  0  0  0  0  0
   10.7151   -3.8775   21.0726 C   0  0  0  0  0  0  0  0  0  0  0  0
    6.6284   -7.2367   16.2866 C   0  0  0  0  0  0  0  0  0  0  0  0
    6.9621   -5.7588   15.5419 O   0  0  0  0  0  0  0  0  0  0  0  0
  1 11  1  0
  1 29  1  0
  2  8  4  0
  2 23  4  0
  3 28  4  0
  3 31  4  0
  4  5  4  0
  4 15  4  0
  4 18  4  0
  5 17  4  0
  5 18  4  0
  6 10  1  0
  6 17  4  0
  7 15  4  0
  8 30  4  0
  9 12  4  0
  9 20  4  0
 10 29  1  0
 11 33  1  0
 12 20  4  0
 13 16  4  0
 13 18  4  0
 14 25  4  0
 16 27  4  0
 17 24  4  0
 19 26  4  0
 19 30  4  0
 19 32  1  0
 20 25  4  0
 21 33  1  0
 22 31  4  0
 22 32  4  0
 23 26  4  0
 28 32  4  0
M  END
$$$$

 Created by Python create_sdf_string function

 34121  0  0  0  0  0  0  0  0999 V2000
    9.8178   -8.7504   16.2929 F   0  0  0  0  0  0  0  0  0  0  0  0
   10.5489   -3.6293   25.0617 C   0  0  0  0  0  0  0  0  0  0  0  0
   10.3114   -4.1543   18.6870 C   0  0  0  0  0  0  0  0  0  0  0  0
    2.4980  -11.3287   19.2608 F   0  0  0  0  0  0  0  0  0  0  0  0
    2.8256   -9.5390   17.3749 C   0  0  0  0  0  0  0  0  0  0  0  0
    5.3303   -8.6901   17.1378 N   0  0  0  0  0  0  0  0  0  0  0  0
    1.1718  -11.6016   18.7779 C   0  0  0  0  0  0  0  0  0  0  0  0
   11.2921   -4.6073   24.7109 C   0  0  0  0  0  0  0  0  0  0  0  0
    8.1893   -5.3473   17.3494 Cl  0  0  0  0  0  0  0  0  0  0  0  0
    6.6749   -8.1180   17.2436 C   0  0  0  0  0  0  0  0  0  0  0  0
    9.2306   -6.0992   16.3691 C   0  0  0  0  0  0  0  0  0  0  0  0
    0.6121  -10.5036   15.1437 F   0  0  0  0  0  0  0  0  0  0  0  0
   10.1414   -4.3110   16.8381 F   0  0  0  0  0  0  0  0  0  0  0  0
    3.9360  -10.9430   19.2490 C   0  0  0  0  0  0  0  0  0  0  0  0
    0.7056  -10.2371   17.7240 C   0  0  0  0  0  0  0  0  0  0  0  0
    2.5216   -9.7596   17.6974 C   0  0  0  0  0  0  0  0  0  0  0  0
   10.6370   -3.3611   22.3088 C   0  0  0  0  0  0  0  0  0  0  0  0
    9.5140   -5.3104   15.9128 C   0  0  0  0  0  0  0  0  0  0  0  0
    6.5513   -5.9084   15.4328 Se  0  0  0  0  0  0  0  0  0  0  0  0
   10.8461   -2.6962   20.6952 N   0  0  0  0  0  0  0  0  0  0  0  0
   10.5944   -3.2118   24.9856 C   0  0  0  0  0  0  0  0  0  0  0  0
   10.1604   -4.2814   16.5033 C   0  0  0  0  0  0  0  0  0  0  0  0
   10.0344   -2.8758   23.7255 C   0  0  0  0  0  0  0  0  0  0  0  0
   -0.3590  -10.8603   17.7685 N   0  0  0  0  0  0  0  0  0  0  0  0
   10.4312   -4.8960   20.5774 C   0  0  0  0  0  0  0  0  0  0  0  0
    8.2166   -7.9898   17.9364 C   0  0  0  0  0  0  0  0  0  0  0  0
   11.6417   -5.1147   23.2162 C   0  0  0  0  0  0  0  0  0  0  0  0
   10.7918   -3.0587   18.7039 N   0  0  0  0  0  0  0  0  0  0  0  0
   10.7783   -3.8198   21.0114 C   0  0  0  0  0  0  0  0  0  0  0  0
    6.5310   -7.9681   15.2076 He  0  0  0  0  0  0  0  0  0  0  0  0
    4.6814   -8.7963   15.3930 He  0  0  0  0  0  0  0  0  0  0  0  0
    4.1988   -8.3175   15.2795 He  0  0  0  0  0  0  0  0  0  0  0  0
    6.9071   -6.8521   16.8398 He  0  0  0  0  0  0  0  0  0  0  0  0
    8.2391   -5.0078   15.3479 He  0  0  0  0  0  0  0  0  0  0  0  0
  1  7  1  0
  1 13  1  0
  1 23  2  0
  1 24  1  0
  1 26  2  0
  1 27  4  0
  2  8  1  0
  2 11  2  0
  2 13  4  0
  2 15  2  0
  2 21  4  0
  2 22  1  0
  3  4  2  0
  3  6  2  0
  3 11  1  0
  3 22  1  0
  3 25  4  0
  3 28  4  0
  3 29  4  0
  4  8  1  0
  4 11  4  0
  4 12  2  0
  4 13  3  0
  4 14  3  0
  4 16  3  0
  4 18  2  0
  4 21  4  0
  4 25  3  0
  4 27  1  0
  4 29  2  0
  5 14  3  0
  5 16  4  0
  5 19  2  0
  5 28  2  0
  6  8  4  0
  6 12  2  0
  6 13  1  0
  6 15  3  0
  6 19  4  0
  6 20  3  0
  6 24  3  0
  6 27  1  0
  7 14  4  0
  7 16  4  0
  7 19  2  0
  7 26  2  0
  7 27  4  0
  7 28  1  0
  8 10  4  0
  8 13  1  0
  8 17  3  0
  8 21  2  0
  8 23  2  0
  8 26  2  0
  8 27  4  0
  9 12  4  0
  9 13  1  0
  9 16  1  0
  9 18  2  0
  9 20  1  0
  9 21  4  0
  9 22  2  0
  9 23  1  0
  9 25  3  0
  9 26  1  0
  9 28  4  0
 10 20  4  0
 10 23  4  0
 10 26  1  0
 10 28  2  0
 10 29  3  0
 11 14  1  0
 11 18  1  0
 11 20  1  0
 11 21  3  0
 11 23  3  0
 11 26  3  0
 11 27  4  0
 11 28  3  0
 12 13  1  0
 12 24  2  0
 12 27  1  0
 12 28  3  0
 13 14  1  0
 13 19  1  0
 13 21  4  0
 13 22  1  0
 13 24  1  0
 13 25  3  0
 13 26  3  0
 13 27  1  0
 14 20  3  0
 15 17  3  0
 15 22  2  0
 15 24  2  0
 15 25  2  0
 15 26  1  0
 15 27  2  0
 16 19  4  0
 17 19  3  0
 17 23  4  0
 17 24  4  0
 17 27  4  0
 19 20  1  0
 19 21  1  0
 19 24  4  0
 19 25  4  0
 20 21  2  0
 20 27  1  0
 20 28  4  0
 20 29  4  0
 21 27  1  0
 21 29  3  0
 23 24  1  0
 24 25  3  0
 24 27  3  0
 25 26  3  0
 25 27  1  0
 25 29  4  0
 26 28  4  0
 28 29  2  0
M  END
$$$$

 Created by Python create_sdf_string function

 34 26  0  0  0  0  0  0  0  0999 V2000
    8.8484   -8.2083   16.5404 C   0  0  0  0  0  0  0  0  0  0  0  0
   10.7869   -3.8543   25.3178 C   0  0  0  0  0  0  0  0  0  0  0  0
   10.5698   -4.1579   18.9102 C   0  0  0  0  0  0  0  0  0  0  0  0
    2.3733  -11.3594   19.0698 C   0  0  0  0  0  0  0  0  0  0  0  0
    2.4924   -9.7990   16.9744 C   0  0  0  0  0  0  0  0  0  0  0  0
    5.1728   -8.7256   17.0859 N   0  0  0  0  0  0  0  0  0  0  0  0
    1.3915  -11.2935   18.6573 C   0  0  0  0  0  0  0  0  0  0  0  0
   11.3592   -4.8432   24.6670 C   0  0  0  0  0  0  0  0  0  0  0  0
    8.8580   -5.8148   17.4011 N   0  0  0  0  0  0  0  0  0  0  0  0
    6.7533   -8.1830   17.4599 C   0  0  0  0  0  0  0  0  0  0  0  0
    6.6019   -7.7421   15.9127 C   0  0  0  0  0  0  0  0  0  0  0  0
    8.9815   -6.0636   16.5429 C   0  0  0  0  0  0  0  0  0  0  0  0
    0.7237   -9.8705   16.1021 N   0  0  0  0  0  0  0  0  0  0  0  0
   10.2890   -4.4495   17.3883 C   0  0  0  0  0  0  0  0  0  0  0  0
    3.5552  -10.7856   18.5606 C   0  0  0  0  0  0  0  0  0  0  0  0
    0.8527  -10.5888   17.3439 C   0  0  0  0  0  0  0  0  0  0  0  0
    4.1283   -8.8162   16.2575 C   0  0  0  0  0  0  0  0  0  0  0  0
    2.9457   -9.8395   17.2295 C   0  0  0  0  0  0  0  0  0  0  0  0
   10.8291   -3.8203   22.6076 C   0  0  0  0  0  0  0  0  0  0  0  0
    9.3525   -5.5655   16.4538 C   0  0  0  0  0  0  0  0  0  0  0  0
    6.5193   -6.3632   15.4664 C   0  0  0  0  0  0  0  0  0  0  0  0
   10.9746   -2.7646   20.4890 N   0  0  0  0  0  0  0  0  0  0  0  0
   10.1818   -2.8134   24.6916 C   0  0  0  0  0  0  0  0  0  0  0  0
    3.9628   -8.6924   15.8403 C   0  0  0  0  0  0  0  0  0  0  0  0
   10.3779   -4.1992   16.9547 C   0  0  0  0  0  0  0  0  0  0  0  0
   10.2486   -2.7489   23.3078 C   0  0  0  0  0  0  0  0  0  0  0  0
   -0.0309  -10.9830   17.5280 N   0  0  0  0  0  0  0  0  0  0  0  0
   10.5035   -4.8232   20.1990 C   0  0  0  0  0  0  0  0  0  0  0  0
    8.1497   -7.8663   17.7052 C   0  0  0  0  0  0  0  0  0  0  0  0
   11.3550   -4.8801   23.2563 C   0  0  0  0  0  0  0  0  0  0  0  0
   10.9532   -2.9184   19.0494 N   0  0  0  0  0  0  0  0  0  0  0  0
   10.7461   -3.8050   21.1605 C   0  0  0  0  0  0  0  0  0  0  0  0
    6.5673   -7.2405   16.4750 C   0  0  0  0  0  0  0  0  0  0  0  0
    7.8568   -5.2047   15.6464 O   0  0  0  0  0  0  0  0  0  0  0  0
  1 29  1  0
  2  8  4  0
  2 23  4  0
  3 14  1  0
  3 28  4  0
  3 31  4  0
  4  7  4  0
  4 15  4  0
  5 18  4  0
  6 10  1  0
  6 17  1  0
  8 30  4  0
 10 29  1  0
 11 33  1  0
 12 20  1  0
 13 16  4  0
 14 25  1  0
 16 27  4  0
 17 24  4  0
 19 26  4  0
 19 30  4  0
 19 32  1  0
 22 31  4  0
 22 32  4  0
 23 26  4  0
 28 32  4  0
M  END
$$$$

 Created by Python create_sdf_string function

 34 77  0  0  0  0  0  0  0  0999 V2000
   10.9381   -3.8069   24.8946 C   0  0  0  0  0  0  0  0  0  0  0  0
   11.0439   -4.2870   18.8102 C   0  0  0  0  0  0  0  0  0  0  0  0
    2.7371  -11.7764   19.3260 O   0  0  0  0  0  0  0  0  0  0  0  0
    2.5396   -9.8652   16.8930 C   0  0  0  0  0  0  0  0  0  0  0  0
    5.3159   -9.0806   17.0095 N   0  0  0  0  0  0  0  0  0  0  0  0
   11.4376   -4.6015   24.6699 C   0  0  0  0  0  0  0  0  0  0  0  0
    7.7535   -8.4925   18.0041 N   0  0  0  0  0  0  0  0  0  0  0  0
    5.7578   -7.9150   16.0809 C   0  0  0  0  0  0  0  0  0  0  0  0
   11.3618   -4.8088   16.8180 C   0  0  0  0  0  0  0  0  0  0  0  0
    3.8481   -9.0773   17.1544 F   0  0  0  0  0  0  0  0  0  0  0  0
    2.6905   -9.8482   17.0208 C   0  0  0  0  0  0  0  0  0  0  0  0
   10.8885   -3.6808   22.7966 C   0  0  0  0  0  0  0  0  0  0  0  0
    6.8495   -5.4277   15.0967 O   0  0  0  0  0  0  0  0  0  0  0  0
   11.3381   -2.8067   20.3867 O   0  0  0  0  0  0  0  0  0  0  0  0
    9.9162   -2.3084   24.7692 P   0  0  0  0  0  0  0  0  0  0  0  0
    3.6383   -8.3486   16.1787 C   0  0  0  0  0  0  0  0  0  0  0  0
   10.4163   -3.9844   16.5661 C   0  0  0  0  0  0  0  0  0  0  0  0
   10.1126   -2.4407   23.1419 I   0  0  0  0  0  0  0  0  0  0  0  0
   -0.0271  -11.1127   17.7118 N   0  0  0  0  0  0  0  0  0  0  0  0
   10.6985   -4.4519   20.5044 C   0  0  0  0  0  0  0  0  0  0  0  0
    8.2288   -7.9633   17.4715 C   0  0  0  0  0  0  0  0  0  0  0  0
   11.3094   -5.3214   22.8316 C   0  0  0  0  0  0  0  0  0  0  0  0
   11.2930   -3.3227   18.6628 N   0  0  0  0  0  0  0  0  0  0  0  0
   10.7418   -3.6596   21.3368 C   0  0  0  0  0  0  0  0  0  0  0  0
    7.3849   -6.6864   16.3826 N   0  0  0  0  0  0  0  0  0  0  0  0
    8.3631   -4.9799   16.0402 S   0  0  0  0  0  0  0  0  0  0  0  0
    9.2187   -8.5692   17.3103 He  0  0  0  0  0  0  0  0  0  0  0  0
   -0.0257  -12.1420   18.6863 He  0  0  0  0  0  0  0  0  0  0  0  0
    8.1825   -4.8626   17.7331 He  0  0  0  0  0  0  0  0  0  0  0  0
    9.6242   -5.8169   15.8097 He  0  0  0  0  0  0  0  0  0  0  0  0
    0.0947   -8.7860   16.6966 He  0  0  0  0  0  0  0  0  0  0  0  0
    3.8432  -11.4387   18.4122 He  0  0  0  0  0  0  0  0  0  0  0  0
    1.3725  -10.4460   17.2669 He  0  0  0  0  0  0  0  0  0  0  0  0
    9.7380   -5.4849   16.0123 He  0  0  0  0  0  0  0  0  0  0  0  0
  1  4  2  0
  1 12  4  0
  1 20  3  0
  1 25  3  0
  2  9  2  0
  2 16  1  0
  2 20  4  0
  3  7  4  0
  3  8  1  0
  3 12  4  0
  3 13  4  0
  3 16  2  0
  3 22  2  0
  4 11  4  0
  4 14  4  0
  4 16  2  0
  4 24  3  0
  5  7  1  0
  5  8  3  0
  5  9  1  0
  5 10  1  0
  5 13  1  0
  5 17  4  0
  6  7  3  0
  6  9  1  0
  6 22  4  0
  7  9  4  0
  7 10  1  0
  7 17  3  0
  7 18  3  0
  7 20  4  0
  7 21  2  0
  7 25  3  0
  8 10  2  0
  8 13  2  0
  8 14  1  0
  8 19  3  0
  8 22  3  0
  8 24  2  0
  8 26  4  0
  9 13  3  0
  9 16  2  0
  9 17  1  0
  9 18  2  0
  9 19  4  0
  9 21  4  0
 10 12  4  0
 10 20  1  0
 10 23  3  0
 10 24  2  0
 10 26  2  0
 11 13  4  0
 11 16  1  0
 12 16  2  0
 12 24  1  0
 12 26  1  0
 13 14  2  0
 13 20  3  0
 13 21  4  0
 13 22  4  0
 13 23  1  0
 13 24  2  0
 14 21  4  0
 14 24  4  0
 14 25  3  0
 15 16  3  0
 15 17  3  0
 15 18  1  0
 17 21  4  0
 17 25  3  0
 18 26  4  0
 19 23  4  0
 20 24  4  0
 20 26  4  0
 21 25  1  0
 22 25  1  0
 23 26  4  0
M  END
$$$$

 Created by Python create_sdf_string function

 34 32  0  0  0  0  0  0  0  0999 V2000
    9.0391   -7.8803   17.6541 C   0  0  0  0  0  0  0  0  0  0  0  0
   10.8323   -3.7923   25.2329 C   0  0  0  0  0  0  0  0  0  0  0  0
   10.8960   -4.1962   18.9662 C   0  0  0  0  0  0  0  0  0  0  0  0
    2.2967  -11.6662   19.0100 C   0  0  0  0  0  0  0  0  0  0  0  0
    2.9340   -9.8062   17.3748 C   0  0  0  0  0  0  0  0  0  0  0  0
    5.5112   -8.5751   17.0404 N   0  0  0  0  0  0  0  0  0  0  0  0
    0.9223  -11.7760   18.7695 C   0  0  0  0  0  0  0  0  0  0  0  0
   11.3348   -4.7895   24.5946 C   0  0  0  0  0  0  0  0  0  0  0  0
    9.2752   -6.0090   17.8276 C   0  0  0  0  0  0  0  0  0  0  0  0
    6.8304   -8.5653   17.6978 C   0  0  0  0  0  0  0  0  0  0  0  0
    5.7662   -7.6157   16.1656 C   0  0  0  0  0  0  0  0  0  0  0  0
    9.2980   -5.7356   16.5126 C   0  0  0  0  0  0  0  0  0  0  0  0
    0.6769   -9.3942   16.4972 C   0  0  0  0  0  0  0  0  0  0  0  0
   10.7869   -4.5206   17.6718 C   0  0  0  0  0  0  0  0  0  0  0  0
    3.4262  -10.9216   18.4680 C   0  0  0  0  0  0  0  0  0  0  0  0
    1.0491  -10.2741   17.4088 C   0  0  0  0  0  0  0  0  0  0  0  0
    4.4228   -9.0268   17.0502 C   0  0  0  0  0  0  0  0  0  0  0  0
    2.1686   -9.8959   17.3182 C   0  0  0  0  0  0  0  0  0  0  0  0
   10.8303   -3.7480   22.5134 C   0  0  0  0  0  0  0  0  0  0  0  0
    9.0097   -5.7729   16.2371 C   0  0  0  0  0  0  0  0  0  0  0  0
    6.8389   -5.9756   15.3689 O   0  0  0  0  0  0  0  0  0  0  0  0
   11.2762   -2.6689   20.4640 N   0  0  0  0  0  0  0  0  0  0  0  0
   10.2160   -2.7254   24.6463 N   0  0  0  0  0  0  0  0  0  0  0  0
    3.4018   -8.7438   16.4831 C   0  0  0  0  0  0  0  0  0  0  0  0
   10.5781   -4.0346   16.7056 C   0  0  0  0  0  0  0  0  0  0  0  0
   10.2709   -2.6659   23.1859 C   0  0  0  0  0  0  0  0  0  0  0  0
    0.1600  -10.9651   17.8232 N   0  0  0  0  0  0  0  0  0  0  0  0
   10.7512   -4.7247   20.2838 C   0  0  0  0  0  0  0  0  0  0  0  0
    7.9331   -8.0146   17.3643 C   0  0  0  0  0  0  0  0  0  0  0  0
   11.3090   -4.9169   23.1364 C   0  0  0  0  0  0  0  0  0  0  0  0
   11.2182   -2.8557   19.0406 N   0  0  0  0  0  0  0  0  0  0  0  0
   10.9406   -3.7322   21.1237 C   0  0  0  0  0  0  0  0  0  0  0  0
    7.6140   -6.9394   16.3756 N   0  0  0  0  0  0  0  0  0  0  0  0
    8.6671   -4.9393   16.0475 N   0  0  0  0  0  0  0  0  0  0  0  0
  1  9  1  0
  1 29  1  0
  2  8  4  0
  2 23  4  0
  3 14  1  0
  3 28  4  0
  3 31  4  0
  4  7  4  0
  4 15  4  0
  5 15  4  0
  5 18  4  0
  6 10  1  0
  6 11  1  0
  6 17  1  0
  7 27  4  0
  8 30  4  0
 10 29  1  0
 12 20  1  0
 13 16  4  0
 14 25  1  0
 16 18  4  0
 16 27  4  0
 17 24  4  0
 19 26  4  0
 19 30  4  0
 19 32  1  0
 20 34  1  0
 22 31  4  0
 22 32  4  0
 23 26  4  0
 28 32  4  0
 29 33  1  0
M  END
$$$$

 Created by Python create_sdf_string function

 34 85  0  0  0  0  0  0  0  0999 V2000
   11.2735   -3.6669   25.0182 C   0  0  0  0  0  0  0  0  0  0  0  0
   10.4332   -4.1105   19.5171 C   0  0  0  0  0  0  0  0  0  0  0  0
    3.0534  -11.7213   18.0295 Se  0  0  0  0  0  0  0  0  0  0  0  0
    2.3911   -9.8072   17.5138 O   0  0  0  0  0  0  0  0  0  0  0  0
    5.7529   -8.5274   17.1573 N   0  0  0  0  0  0  0  0  0  0  0  0
    1.1981  -11.7285   19.3018 C   0  0  0  0  0  0  0  0  0  0  0  0
   11.3635   -4.7806   24.7915 C   0  0  0  0  0  0  0  0  0  0  0  0
    9.4104   -6.9430   16.9493 P   0  0  0  0  0  0  0  0  0  0  0  0
    6.2725   -9.1785   18.1069 Cl  0  0  0  0  0  0  0  0  0  0  0  0
    6.8432   -7.9302   14.9152 F   0  0  0  0  0  0  0  0  0  0  0  0
   -0.0391  -10.0557   16.8852 C   0  0  0  0  0  0  0  0  0  0  0  0
   11.0754   -5.9354   17.4803 F   0  0  0  0  0  0  0  0  0  0  0  0
    3.8718  -11.2242   18.1891 F   0  0  0  0  0  0  0  0  0  0  0  0
    1.3208  -11.8587   17.3935 I   0  0  0  0  0  0  0  0  0  0  0  0
    6.1344   -8.8863   17.9806 C   0  0  0  0  0  0  0  0  0  0  0  0
    2.5077   -9.6589   16.8845 C   0  0  0  0  0  0  0  0  0  0  0  0
   10.9288   -3.8321   22.8708 C   0  0  0  0  0  0  0  0  0  0  0  0
    9.2627   -5.5247   16.7721 C   0  0  0  0  0  0  0  0  0  0  0  0
   11.0254   -2.5475   20.6549 N   0  0  0  0  0  0  0  0  0  0  0  0
   10.3190   -2.6915   24.6755 N   0  0  0  0  0  0  0  0  0  0  0  0
   10.7352   -3.9997   17.1054 C   0  0  0  0  0  0  0  0  0  0  0  0
   10.3495   -4.5322   19.5603 C   0  0  0  0  0  0  0  0  0  0  0  0
    7.1002   -8.2514   17.5577 C   0  0  0  0  0  0  0  0  0  0  0  0
   11.1525   -4.6216   23.2864 C   0  0  0  0  0  0  0  0  0  0  0  0
   11.1645   -2.4156   19.0496 N   0  0  0  0  0  0  0  0  0  0  0  0
   10.8876   -4.0092   21.5403 C   0  0  0  0  0  0  0  0  0  0  0  0
    8.5973   -7.4312   16.6958 He  0  0  0  0  0  0  0  0  0  0  0  0
   10.0063   -6.7758   16.2455 He  0  0  0  0  0  0  0  0  0  0  0  0
    6.3629   -7.1475   15.5340 He  0  0  0  0  0  0  0  0  0  0  0  0
    2.7864   -8.9000   16.3320 He  0  0  0  0  0  0  0  0  0  0  0  0
   10.3540   -2.7307   22.7879 He  0  0  0  0  0  0  0  0  0  0  0  0
   -0.3710  -10.9451   17.8024 He  0  0  0  0  0  0  0  0  0  0  0  0
    6.5705   -6.7936   17.5675 He  0  0  0  0  0  0  0  0  0  0  0  0
    8.8359   -6.9281   15.8005 He  0  0  0  0  0  0  0  0  0  0  0  0
  1  3  1  0
  1  7  4  0
  1 10  2  0
  1 11  1  0
  1 12  3  0
  1 15  1  0
  1 20  4  0
  1 21  3  0
  2  6  2  0
  2 11  3  0
  2 12  1  0
  2 13  1  0
  2 17  3  0
  2 22  4  0
  2 23  4  0
  2 25  4  0
  3  5  1  0
  3  6  4  0
  3 13  2  0
  3 17  4  0
  3 23  1  0
  3 24  1  0
  4  9  1  0
  4 12  4  0
  4 13  4  0
  4 16  4  0
  4 25  3  0
  5 11  3  0
  5 14  1  0
  5 15  3  0
  6  8  1  0
  6 13  4  0
  6 14  1  0
  6 17  3  0
  6 22  4  0
  7 12  1  0
  7 24  1  0
  8 17  2  0
  8 21  3  0
  8 24  4  0
  8 26  1  0
  9 11  1  0
  9 13  3  0
  9 16  3  0
  9 18  4  0
  9 19  4  0
  9 22  2  0
  9 24  2  0
 10 12  2  0
 10 13  1  0
 10 14  4  0
 10 16  1  0
 10 17  2  0
 10 20  1  0
 10 25  2  0
 10 26  1  0
 11 15  2  0
 11 20  2  0
 12 13  2  0
 12 14  2  0
 12 19  2  0
 12 22  3  0
 13 15  3  0
 14 15  3  0
 14 20  2  0
 14 21  3  0
 14 23  3  0
 14 26  4  0
 15 16  4  0
 15 18  1  0
 15 19  4  0
 15 23  4  0
 15 25  1  0
 16 18  4  0
 16 20  2  0
 16 26  1  0
 17 20  3  0
 17 24  4  0
 17 25  2  0
 17 26  1  0
 18 23  2  0
 19 25  1  0
 19 26  3  0
 22 26  4  0
 24 25  3  0
M  END
$$$$

 Created by Python create_sdf_string function

 34 30  0  0  0  0  0  0  0  0999 V2000
    7.9937   -7.3395   16.8657 C   0  0  0  0  0  0  0  0  0  0  0  0
   10.9930   -3.5960   25.2654 C   0  0  0  0  0  0  0  0  0  0  0  0
   10.6884   -4.1426   18.8859 C   0  0  0  0  0  0  0  0  0  0  0  0
    2.6961  -11.2866   18.7735 C   0  0  0  0  0  0  0  0  0  0  0  0
    2.6683   -9.8471   17.3327 C   0  0  0  0  0  0  0  0  0  0  0  0
    5.0577   -8.7597   17.0179 N   0  0  0  0  0  0  0  0  0  0  0  0
    1.5962  -11.7162   18.8148 C   0  0  0  0  0  0  0  0  0  0  0  0
   11.3875   -4.7502   24.7009 C   0  0  0  0  0  0  0  0  0  0  0  0
    9.2372   -6.9693   17.4086 C   0  0  0  0  0  0  0  0  0  0  0  0
    5.4295   -9.0117   17.9888 C   0  0  0  0  0  0  0  0  0  0  0  0
    6.5841   -8.0794   15.4712 C   0  0  0  0  0  0  0  0  0  0  0  0
    9.6640   -6.6221   17.1671 C   0  0  0  0  0  0  0  0  0  0  0  0
    0.5957   -9.9867   16.7743 C   0  0  0  0  0  0  0  0  0  0  0  0
   10.4094   -4.7264   17.7488 C   0  0  0  0  0  0  0  0  0  0  0  0
    3.8380  -10.6252   18.4248 C   0  0  0  0  0  0  0  0  0  0  0  0
    0.8042  -11.4020   18.2633 C   0  0  0  0  0  0  0  0  0  0  0  0
    5.1987   -8.9175   17.4661 C   0  0  0  0  0  0  0  0  0  0  0  0
    2.3268   -9.5561   16.9306 C   0  0  0  0  0  0  0  0  0  0  0  0
   10.8052   -3.7480   22.5738 C   0  0  0  0  0  0  0  0  0  0  0  0
    9.3308   -5.2717   16.5722 C   0  0  0  0  0  0  0  0  0  0  0  0
    6.5497   -7.5650   15.7176 C   0  0  0  0  0  0  0  0  0  0  0  0
   11.0972   -2.6199   20.4408 N   0  0  0  0  0  0  0  0  0  0  0  0
   10.4299   -2.6060   24.5771 N   0  0  0  0  0  0  0  0  0  0  0  0
    3.0496   -8.9298   16.4093 C   0  0  0  0  0  0  0  0  0  0  0  0
   10.8618   -3.8100   16.7400 C   0  0  0  0  0  0  0  0  0  0  0  0
   10.3240   -2.6270   23.1940 C   0  0  0  0  0  0  0  0  0  0  0  0
   -0.0207  -11.0518   17.5410 C   0  0  0  0  0  0  0  0  0  0  0  0
   10.5265   -4.7167   20.1664 C   0  0  0  0  0  0  0  0  0  0  0  0
    7.0771   -8.1555   17.8615 C   0  0  0  0  0  0  0  0  0  0  0  0
   11.2615   -4.8376   23.3030 C   0  0  0  0  0  0  0  0  0  0  0  0
   11.0653   -2.8902   19.0022 N   0  0  0  0  0  0  0  0  0  0  0  0
   10.8231   -3.7224   21.1462 C   0  0  0  0  0  0  0  0  0  0  0  0
    7.1274   -7.1734   17.7377 C   0  0  0  0  0  0  0  0  0  0  0  0
    8.6907   -6.4742   16.1450 C   0  0  0  0  0  0  0  0  0  0  0  0
  1 33  1  0
  2  8  4  0
  2 23  4  0
  3 14  1  0
  3 28  4  0
  3 31  4  0
  4  7  4  0
  4 15  4  0
  5 15  4  0
  5 18  4  0
  5 24  4  0
  6 17  1  0
  7 16  4  0
  8 30  4  0
  9 12  4  0
 11 21  1  0
 13 18  4  0
 13 27  4  0
 14 20  4  0
 14 25  4  0
 16 27  4  0
 19 26  4  0
 19 30  4  0
 19 32  1  0
 20 34  4  0
 22 31  4  0
 22 32  4  0
 23 26  4  0
 28 32  4  0
 29 33  1  0
M  END
$$$$

 Created by Python create_sdf_string function

 34 92  0  0  0  0  0  0  0  0999 V2000
   10.9588   -4.0750   25.5346 C   0  0  0  0  0  0  0  0  0  0  0  0
   10.7837   -3.9808   18.6084 C   0  0  0  0  0  0  0  0  0  0  0  0
    2.7912  -10.6848   18.5734 C   0  0  0  0  0  0  0  0  0  0  0  0
    2.4520   -9.9098   17.3050 C   0  0  0  0  0  0  0  0  0  0  0  0
    0.9314  -11.8458   17.5468 N   0  0  0  0  0  0  0  0  0  0  0  0
   11.5264   -4.1539   24.9997 C   0  0  0  0  0  0  0  0  0  0  0  0
    8.8174   -6.8391   16.2966 Cl  0  0  0  0  0  0  0  0  0  0  0  0
    5.5511   -9.1093   17.7048 C   0  0  0  0  0  0  0  0  0  0  0  0
    7.4310   -6.9471   16.8242 C   0  0  0  0  0  0  0  0  0  0  0  0
    9.5097   -6.5680   17.2195 C   0  0  0  0  0  0  0  0  0  0  0  0
    0.7228  -11.2240   17.4296 C   0  0  0  0  0  0  0  0  0  0  0  0
   10.7316   -6.1008   18.4896 C   0  0  0  0  0  0  0  0  0  0  0  0
    4.6174  -10.8906   18.3434 C   0  0  0  0  0  0  0  0  0  0  0  0
    2.7660  -10.1462   16.8235 Br  0  0  0  0  0  0  0  0  0  0  0  0
   10.3754   -3.8423   22.5134 C   0  0  0  0  0  0  0  0  0  0  0  0
    6.4697   -7.5627   16.2834 C   0  0  0  0  0  0  0  0  0  0  0  0
   11.4487   -2.5073   20.9648 N   0  0  0  0  0  0  0  0  0  0  0  0
   10.4487   -2.6456   24.5242 N   0  0  0  0  0  0  0  0  0  0  0  0
    3.5439   -8.4867   16.4495 C   0  0  0  0  0  0  0  0  0  0  0  0
   10.6826   -3.5963   16.1698 C   0  0  0  0  0  0  0  0  0  0  0  0
    9.9548   -2.6624   22.8815 C   0  0  0  0  0  0  0  0  0  0  0  0
   -0.3353  -11.0634   17.8710 C   0  0  0  0  0  0  0  0  0  0  0  0
   10.8503   -4.6712   20.1259 C   0  0  0  0  0  0  0  0  0  0  0  0
    7.1325   -8.2219   17.7555 C   0  0  0  0  0  0  0  0  0  0  0  0
   10.7768   -2.5073   19.1205 N   0  0  0  0  0  0  0  0  0  0  0  0
   11.1220   -4.1350   20.9347 C   0  0  0  0  0  0  0  0  0  0  0  0
    6.8278   -7.6715   17.5782 C   0  0  0  0  0  0  0  0  0  0  0  0
    7.9787   -7.4766   17.2644 He  0  0  0  0  0  0  0  0  0  0  0  0
    4.9612   -8.9050   16.7890 He  0  0  0  0  0  0  0  0  0  0  0  0
    1.7610  -10.3890   17.9286 He  0  0  0  0  0  0  0  0  0  0  0  0
    4.1688   -9.1867   16.9091 He  0  0  0  0  0  0  0  0  0  0  0  0
    9.2903   -5.7978   16.1935 He  0  0  0  0  0  0  0  0  0  0  0  0
   11.3672   -4.6459   23.6438 He  0  0  0  0  0  0  0  0  0  0  0  0
    9.8164   -7.2597   15.7545 He  0  0  0  0  0  0  0  0  0  0  0  0
  1  5  3  0
  1  6  4  0
  1  9  4  0
  1 19  2  0
  2  3  4  0
  2  4  1  0
  2 11  3  0
  2 23  4  0
  2 25  4  0
  3  8  1  0
  3  9  4  0
  3 11  3  0
  3 17  4  0
  3 21  3  0
  3 23  1  0
  3 24  4  0
  4  6  4  0
  4 13  4  0
  4 14  4  0
  4 16  3  0
  5  7  3  0
  5 13  1  0
  5 15  1  0
  5 17  2  0
  5 21  3  0
  5 23  2  0
  5 26  2  0
  6  8  3  0
  6  9  1  0
  6 13  1  0
  6 27  3  0
  7 10  4  0
  7 13  1  0
  7 15  3  0
  7 17  1  0
  7 20  2  0
  7 25  4  0
  8 10  4  0
  8 16  3  0
  8 21  4  0
  8 26  1  0
  9 10  2  0
  9 11  1  0
  9 14  1  0
  9 15  2  0
  9 16  2  0
  9 19  3  0
  9 20  2  0
 10 11  3  0
 10 12  1  0
 10 13  2  0
 10 15  4  0
 10 18  4  0
 10 19  3  0
 10 20  2  0
 10 21  2  0
 11 12  2  0
 11 16  4  0
 11 18  4  0
 11 22  1  0
 11 24  1  0
 11 26  2  0
 12 15  4  0
 12 19  1  0
 12 20  2  0
 13 14  1  0
 13 16  4  0
 13 17  2  0
 13 19  4  0
 13 20  1  0
 13 21  2  0
 13 22  4  0
 13 24  2  0
 14 22  3  0
 14 27  3  0
 15 18  2  0
 15 20  2  0
 15 21  4  0
 16 20  4  0
 16 21  4  0
 16 23  4  0
 16 24  4  0
 17 26  4  0
 18 21  4  0
 18 22  1  0
 19 23  1  0
 19 25  3  0
 20 27  1  0
 21 23  2  0
 22 27  1  0
 23 24  1  0
 23 26  4  0
M  END
$$$$

 Created by Python create_sdf_string function

 34 29  0  0  0  0  0  0  0  0999 V2000
    8.3928   -7.5796   17.5484 C   0  0  0  0  0  0  0  0  0  0  0  0
   10.7936   -3.6044   25.3599 C   0  0  0  0  0  0  0  0  0  0  0  0
   10.8017   -4.2184   18.9417 C   0  0  0  0  0  0  0  0  0  0  0  0
    2.4910  -11.1137   18.6282 C   0  0  0  0  0  0  0  0  0  0  0  0
    2.5008  -10.0117   17.3365 C   0  0  0  0  0  0  0  0  0  0  0  0
    4.8359   -8.4417   16.6343 N   0  0  0  0  0  0  0  0  0  0  0  0
    0.6665  -11.8028   18.2105 N   0  0  0  0  0  0  0  0  0  0  0  0
   11.4142   -4.5962   24.7486 C   0  0  0  0  0  0  0  0  0  0  0  0
    8.7950   -6.5950   17.0066 C   0  0  0  0  0  0  0  0  0  0  0  0
    5.2757   -9.5803   17.9760 C   0  0  0  0  0  0  0  0  0  0  0  0
    7.4740   -6.7769   16.0210 C   0  0  0  0  0  0  0  0  0  0  0  0
    9.9132   -5.7814   17.6654 C   0  0  0  0  0  0  0  0  0  0  0  0
    0.4102  -11.0341   17.7258 C   0  0  0  0  0  0  0  0  0  0  0  0
   10.4260   -4.9669   17.8505 C   0  0  0  0  0  0  0  0  0  0  0  0
    4.1085  -10.4963   18.1962 C   0  0  0  0  0  0  0  0  0  0  0  0
    1.6585  -11.0947   18.4632 C   0  0  0  0  0  0  0  0  0  0  0  0
    4.4811   -8.9231   16.9812 C   0  0  0  0  0  0  0  0  0  0  0  0
    2.2032   -9.7694   17.0246 C   0  0  0  0  0  0  0  0  0  0  0  0
   10.8412   -3.7199   22.5865 C   0  0  0  0  0  0  0  0  0  0  0  0
    9.5666   -5.1267   16.3501 C   0  0  0  0  0  0  0  0  0  0  0  0
    6.2414   -7.3811   16.1179 C   0  0  0  0  0  0  0  0  0  0  0  0
   11.2290   -2.6573   20.4535 N   0  0  0  0  0  0  0  0  0  0  0  0
   10.0927   -2.6584   24.6381 N   0  0  0  0  0  0  0  0  0  0  0  0
    3.3363   -8.7949   16.2706 C   0  0  0  0  0  0  0  0  0  0  0  0
   10.6352   -3.8217   16.4720 C   0  0  0  0  0  0  0  0  0  0  0  0
   10.1618   -2.6999   23.2426 C   0  0  0  0  0  0  0  0  0  0  0  0
   -0.5530  -11.1442   17.7287 C   0  0  0  0  0  0  0  0  0  0  0  0
   10.7502   -4.8019   20.3282 C   0  0  0  0  0  0  0  0  0  0  0  0
    7.1368   -8.1197   17.6527 C   0  0  0  0  0  0  0  0  0  0  0  0
   11.3884   -4.6671   23.3796 C   0  0  0  0  0  0  0  0  0  0  0  0
   11.1481   -2.8546   19.0848 N   0  0  0  0  0  0  0  0  0  0  0  0
   10.9612   -3.7843   21.1918 C   0  0  0  0  0  0  0  0  0  0  0  0
    6.6649   -8.0045   17.3867 C   0  0  0  0  0  0  0  0  0  0  0  0
    9.2332   -5.6765   16.1678 C   0  0  0  0  0  0  0  0  0  0  0  0
  1  9  4  0
  1 29  4  0
  2  8  4  0
  2 23  4  0
  3 14  4  0
  3 28  4  0
  3 31  4  0
  4 16  4  0
  5 15  4  0
  5 18  4  0
  6 17  1  0
  8 30  4  0
  9 12  4  0
 10 15  4  0
 10 17  4  0
 11 21  4  0
 12 14  4  0
 13 27  1  0
 14 20  4  0
 18 24  4  0
 19 26  4  0
 19 30  4  0
 19 32  1  0
 20 34  4  0
 22 31  4  0
 22 32  4  0
 23 26  4  0
 28 32  4  0
 29 33  1  0
M  END
$$$$

 Created by Python create_sdf_string function

 34 59  0  0  0  0  0  0  0  0999 V2000
    7.4847   -7.0262   17.2585 C   0  0  0  0  0  0  0  0  0  0  0  0
   10.9703   -3.6852   25.0220 C   0  0  0  0  0  0  0  0  0  0  0  0
   10.7274   -4.8847   18.7609 C   0  0  0  0  0  0  0  0  0  0  0  0
    3.3759  -11.6813   16.8798 C   0  0  0  0  0  0  0  0  0  0  0  0
    2.3958  -10.2263   17.0384 C   0  0  0  0  0  0  0  0  0  0  0  0
    4.8570   -8.5012   17.0228 N   0  0  0  0  0  0  0  0  0  0  0  0
    0.9796  -11.6323   17.0103 O   0  0  0  0  0  0  0  0  0  0  0  0
   11.2966   -4.4823   24.9634 O   0  0  0  0  0  0  0  0  0  0  0  0
    9.0126   -7.5485   17.5712 C   0  0  0  0  0  0  0  0  0  0  0  0
    8.8193   -6.6924   17.3103 C   0  0  0  0  0  0  0  0  0  0  0  0
    3.2088   -9.7598   16.9991 C   0  0  0  0  0  0  0  0  0  0  0  0
    2.2259   -9.4674   16.6631 C   0  0  0  0  0  0  0  0  0  0  0  0
   10.1374   -5.4560   16.3035 C   0  0  0  0  0  0  0  0  0  0  0  0
    7.2781   -7.1795   15.6310 C   0  0  0  0  0  0  0  0  0  0  0  0
   11.0798   -3.0516   20.5909 N   0  0  0  0  0  0  0  0  0  0  0  0
   10.0190   -2.8633   24.5225 N   0  0  0  0  0  0  0  0  0  0  0  0
   10.4739   -3.9939   16.4590 C   0  0  0  0  0  0  0  0  0  0  0  0
    9.8837   -2.4570   23.1709 Cl  0  0  0  0  0  0  0  0  0  0  0  0
   -0.2000  -11.1688   17.7593 C   0  0  0  0  0  0  0  0  0  0  0  0
   10.9163   -4.9462   20.3587 C   0  0  0  0  0  0  0  0  0  0  0  0
    6.9970   -8.2822   17.6163 C   0  0  0  0  0  0  0  0  0  0  0  0
   10.8162   -2.8932   19.3041 N   0  0  0  0  0  0  0  0  0  0  0  0
    8.4877   -6.9529   18.3670 N   0  0  0  0  0  0  0  0  0  0  0  0
    9.7971   -6.5079   17.8129 C   0  0  0  0  0  0  0  0  0  0  0  0
    5.8243  -10.3374   17.5181 He  0  0  0  0  0  0  0  0  0  0  0  0
    6.9678   -6.4927   15.3273 He  0  0  0  0  0  0  0  0  0  0  0  0
    0.3709  -12.0562   17.1688 He  0  0  0  0  0  0  0  0  0  0  0  0
    9.5161   -3.8520   16.9613 He  0  0  0  0  0  0  0  0  0  0  0  0
    3.1661  -11.3280   17.8473 He  0  0  0  0  0  0  0  0  0  0  0  0
    5.0080   -8.8862   16.4735 He  0  0  0  0  0  0  0  0  0  0  0  0
   10.4819   -3.9901   22.4454 He  0  0  0  0  0  0  0  0  0  0  0  0
    3.9513   -9.4706   16.7990 He  0  0  0  0  0  0  0  0  0  0  0  0
   11.6150   -4.3574   23.8341 He  0  0  0  0  0  0  0  0  0  0  0  0
   11.0340   -4.2269   21.6740 He  0  0  0  0  0  0  0  0  0  0  0  0
  1  2  2  0
  1  4  1  0
  1  6  2  0
  1 10  2  0
  1 13  3  0
  1 19  2  0
  1 21  4  0
  1 24  4  0
  2  7  1  0
  2 13  3  0
  2 16  4  0
  3 12  1  0
  3 15  3  0
  3 20  4  0
  3 22  4  0
  4  6  4  0
  4  9  4  0
  4 12  3  0
  4 16  2  0
  4 19  1  0
  4 22  3  0
  5 11  3  0
  5 13  2  0
  5 15  3  0
  6  7  3  0
  7  8  3  0
  7 13  2  0
  7 14  2  0
  7 17  4  0
  7 21  3  0
  7 23  4  0
  8 23  1  0
  9 10  4  0
  9 14  2  0
  9 15  4  0
  9 21  3  0
  9 23  4  0
 10 15  3  0
 10 18  1  0
 10 21  3  0
 10 24  3  0
 11 12  4  0
 11 14  1  0
 11 22  4  0
 12 24  1  0
 13 14  1  0
 13 20  2  0
 13 23  2  0
 13 24  4  0
 14 18  1  0
 14 20  3  0
 15 18  3  0
 15 22  4  0
 15 24  2  0
 16 18  4  0
 16 22  3  0
 18 19  1  0
 18 23  1  0
 23 24  4  0
M  END
$$$$

 Created by Python create_sdf_string function

 34 29  0  0  0  0  0  0  0  0999 V2000
    7.2034   -7.5529   16.9371 C   0  0  0  0  0  0  0  0  0  0  0  0
   10.5349   -3.5179   25.3482 C   0  0  0  0  0  0  0  0  0  0  0  0
   10.5736   -4.5250   19.0969 C   0  0  0  0  0  0  0  0  0  0  0  0
    3.5016  -11.0044   18.1754 C   0  0  0  0  0  0  0  0  0  0  0  0
    1.6763  -10.4701   17.4265 C   0  0  0  0  0  0  0  0  0  0  0  0
    5.1358   -8.3932   16.6350 N   0  0  0  0  0  0  0  0  0  0  0  0
    0.7713  -11.6039   17.6646 O   0  0  0  0  0  0  0  0  0  0  0  0
   11.3107   -4.4552   24.8737 C   0  0  0  0  0  0  0  0  0  0  0  0
    8.5719   -7.4819   17.5780 C   0  0  0  0  0  0  0  0  0  0  0  0
    5.2628  -10.1475   17.6365 C   0  0  0  0  0  0  0  0  0  0  0  0
    6.6509   -6.7859   15.3534 C   0  0  0  0  0  0  0  0  0  0  0  0
    8.2840   -7.1264   17.1070 C   0  0  0  0  0  0  0  0  0  0  0  0
    0.2447  -11.6934   17.5899 C   0  0  0  0  0  0  0  0  0  0  0  0
   10.2809   -4.0791   16.7688 C   0  0  0  0  0  0  0  0  0  0  0  0
    2.7542   -9.8773   17.1717 C   0  0  0  0  0  0  0  0  0  0  0  0
    2.9889  -11.0575   18.1991 C   0  0  0  0  0  0  0  0  0  0  0  0
    5.1281   -8.4262   16.5550 C   0  0  0  0  0  0  0  0  0  0  0  0
    2.4280   -9.2747   16.6828 C   0  0  0  0  0  0  0  0  0  0  0  0
   10.8461   -3.7901   22.6563 C   0  0  0  0  0  0  0  0  0  0  0  0
    9.5232   -5.3561   16.9284 C   0  0  0  0  0  0  0  0  0  0  0  0
    7.0730   -7.2593   15.2753 C   0  0  0  0  0  0  0  0  0  0  0  0
   11.0659   -2.9217   20.4907 N   0  0  0  0  0  0  0  0  0  0  0  0
    9.9578   -2.5962   24.5745 N   0  0  0  0  0  0  0  0  0  0  0  0
    3.8498   -9.0462   16.7742 C   0  0  0  0  0  0  0  0  0  0  0  0
   10.4052   -3.8154   16.5215 C   0  0  0  0  0  0  0  0  0  0  0  0
   10.1561   -2.6768   23.2075 C   0  0  0  0  0  0  0  0  0  0  0  0
   -0.4467  -11.3333   17.6530 C   0  0  0  0  0  0  0  0  0  0  0  0
   10.6951   -5.0478   20.4833 C   0  0  0  0  0  0  0  0  0  0  0  0
    6.8365   -8.4286   17.5309 C   0  0  0  0  0  0  0  0  0  0  0  0
   11.3909   -4.7019   23.4711 C   0  0  0  0  0  0  0  0  0  0  0  0
   10.9392   -3.1392   19.1579 N   0  0  0  0  0  0  0  0  0  0  0  0
   10.8658   -3.9868   21.2831 C   0  0  0  0  0  0  0  0  0  0  0  0
    9.7872   -6.7196   18.5313 N   0  0  0  0  0  0  0  0  0  0  0  0
    9.8530   -5.6941   18.0714 C   0  0  0  0  0  0  0  0  0  0  0  0
  1 12  4  0
  1 29  4  0
  2  8  4  0
  2 23  4  0
  3 28  4  0
  3 31  4  0
  3 34  1  0
  4 16  4  0
  6 17  1  0
  6 24  4  0
  7 13  2  0
  8 30  4  0
  9 12  4  0
  9 33  4  0
 11 21  4  0
 13 27  1  0
 14 25  1  0
 15 16  4  0
 15 18  4  0
 18 24  4  0
 19 26  4  0
 19 30  4  0
 19 32  1  0
 20 34  4  0
 22 31  4  0
 22 32  4  0
 23 26  4  0
 28 32  4  0
 33 34  4  0
M  END
$$$$

 Created by Python create_sdf_string function

 34 81  0  0  0  0  0  0  0  0999 V2000
   10.7624   -3.5549   25.3401 C   0  0  0  0  0  0  0  0  0  0  0  0
   10.6903   -4.3395   18.7620 C   0  0  0  0  0  0  0  0  0  0  0  0
    4.0731  -10.0187   17.9036 N   0  0  0  0  0  0  0  0  0  0  0  0
    1.4793  -10.8106   17.4242 C   0  0  0  0  0  0  0  0  0  0  0  0
    4.9133   -8.0806   16.6544 N   0  0  0  0  0  0  0  0  0  0  0  0
    1.4946  -12.2052   17.9577 O   0  0  0  0  0  0  0  0  0  0  0  0
   10.9999   -4.1979   24.5452 C   0  0  0  0  0  0  0  0  0  0  0  0
    6.2861   -6.7828   15.5397 C   0  0  0  0  0  0  0  0  0  0  0  0
    1.1070  -13.3278   17.8084 P   0  0  0  0  0  0  0  0  0  0  0  0
    3.1759   -9.9201   16.7171 C   0  0  0  0  0  0  0  0  0  0  0  0
    4.2389  -10.3421   17.4494 C   0  0  0  0  0  0  0  0  0  0  0  0
    4.8960   -8.2107   16.9301 C   0  0  0  0  0  0  0  0  0  0  0  0
    2.2475   -9.3617   16.6066 C   0  0  0  0  0  0  0  0  0  0  0  0
   11.0151   -4.0732   22.8653 C   0  0  0  0  0  0  0  0  0  0  0  0
    9.5257   -5.2417   16.9719 C   0  0  0  0  0  0  0  0  0  0  0  0
    4.3659   -8.9976   17.2542 P   0  0  0  0  0  0  0  0  0  0  0  0
   10.5864   -3.9563   16.3806 C   0  0  0  0  0  0  0  0  0  0  0  0
   10.0336   -2.7601   22.4099 C   0  0  0  0  0  0  0  0  0  0  0  0
   -0.6587  -11.6796   17.7008 C   0  0  0  0  0  0  0  0  0  0  0  0
   10.8276   -5.2054   20.4486 C   0  0  0  0  0  0  0  0  0  0  0  0
    6.8721   -8.7244   17.7589 C   0  0  0  0  0  0  0  0  0  0  0  0
   11.4783   -4.7619   23.4508 C   0  0  0  0  0  0  0  0  0  0  0  0
   10.9124   -3.0550   19.2078 N   0  0  0  0  0  0  0  0  0  0  0  0
   11.1064   -4.0957   21.5815 C   0  0  0  0  0  0  0  0  0  0  0  0
    9.7816   -8.0417   18.9244 N   0  0  0  0  0  0  0  0  0  0  0  0
    9.5671   -5.5136   18.3311 C   0  0  0  0  0  0  0  0  0  0  0  0
    7.4888   -7.2760   17.6840 He  0  0  0  0  0  0  0  0  0  0  0  0
    8.9520   -7.2680   18.3770 He  0  0  0  0  0  0  0  0  0  0  0  0
    4.6941  -10.7253   16.9166 He  0  0  0  0  0  0  0  0  0  0  0  0
    7.8829   -6.0383   16.8380 He  0  0  0  0  0  0  0  0  0  0  0  0
   10.4030   -4.3321   16.5168 He  0  0  0  0  0  0  0  0  0  0  0  0
    7.3004   -6.6901   16.0377 He  0  0  0  0  0  0  0  0  0  0  0  0
   10.9454   -3.0986   20.4381 He  0  0  0  0  0  0  0  0  0  0  0  0
   10.1418   -2.4656   24.5197 He  0  0  0  0  0  0  0  0  0  0  0  0
  1  7  4  0
  1 21  1  0
  2  8  2  0
  2 10  3  0
  2 16  2  0
  2 20  4  0
  2 23  4  0
  2 24  1  0
  2 26  1  0
  3  6  3  0
  3  7  3  0
  3 13  3  0
  3 15  4  0
  3 17  3  0
  3 22  4  0
  3 24  1  0
  3 26  4  0
  4  7  1  0
  5  6  3  0
  5 11  1  0
  5 12  4  0
  5 16  4  0
  6 11  2  0
  6 12  3  0
  6 16  1  0
  6 17  4  0
  6 18  1  0
  6 20  1  0
  6 21  1  0
  6 25  3  0
  6 26  2  0
  7 10  1  0
  7 11  4  0
  7 12  1  0
  7 19  1  0
  7 22  4  0
  7 25  3  0
  8 10  1  0
  8 11  3  0
  8 23  2  0
  9 10  4  0
  9 19  4  0
  9 25  2  0
  9 26  4  0
 10 11  4  0
 10 12  1  0
 10 13  2  0
 10 18  1  0
 10 22  1  0
 11 15  3  0
 11 16  1  0
 11 19  2  0
 11 20  2  0
 11 21  4  0
 11 25  1  0
 11 26  3  0
 12 13  4  0
 12 14  2  0
 12 18  3  0
 12 19  3  0
 12 21  3  0
 12 24  4  0
 13 15  3  0
 14 17  2  0
 14 18  4  0
 14 19  4  0
 14 22  4  0
 14 23  1  0
 14 24  1  0
 14 25  3  0
 16 22  1  0
 16 23  3  0
 17 20  2  0
 18 22  4  0
 18 26  1  0
 19 26  4  0
 20 23  4  0
 20 24  4  0
 21 25  1  0
 21 26  2  0
 22 25  2  0
M  END
$$$$

 Created by Python create_sdf_string function

 34 33  0  0  0  0  0  0  0  0999 V2000
    7.7763   -7.6826   17.6274 C   0  0  0  0  0  0  0  0  0  0  0  0
   10.5932   -3.4229   25.3471 C   0  0  0  0  0  0  0  0  0  0  0  0
   10.5989   -4.5286   19.0264 C   0  0  0  0  0  0  0  0  0  0  0  0
    3.5501  -11.0338   18.2361 N   0  0  0  0  0  0  0  0  0  0  0  0
    1.2485  -10.8069   17.6892 C   0  0  0  0  0  0  0  0  0  0  0  0
    4.9237   -8.1189   16.6745 N   0  0  0  0  0  0  0  0  0  0  0  0
    1.4283  -11.9996   18.4471 N   0  0  0  0  0  0  0  0  0  0  0  0
   11.1795   -4.5207   24.8714 C   0  0  0  0  0  0  0  0  0  0  0  0
    9.0438   -7.1149   18.1561 C   0  0  0  0  0  0  0  0  0  0  0  0
    4.8613  -10.5082   17.8542 N   0  0  0  0  0  0  0  0  0  0  0  0
    6.4946   -6.7927   15.6237 C   0  0  0  0  0  0  0  0  0  0  0  0
    8.3029   -6.2374   16.6663 C   0  0  0  0  0  0  0  0  0  0  0  0
    0.6453  -12.6042   18.1865 N   0  0  0  0  0  0  0  0  0  0  0  0
   10.5483   -3.9696   16.5571 C   0  0  0  0  0  0  0  0  0  0  0  0
    2.0476  -10.1408   17.2978 C   0  0  0  0  0  0  0  0  0  0  0  0
    3.7772  -10.2101   17.6783 C   0  0  0  0  0  0  0  0  0  0  0  0
    4.9811   -8.2411   16.7310 C   0  0  0  0  0  0  0  0  0  0  0  0
    2.2549   -9.3755   16.7546 C   0  0  0  0  0  0  0  0  0  0  0  0
   10.8399   -3.8161   22.6051 C   0  0  0  0  0  0  0  0  0  0  0  0
    9.2711   -5.2924   16.8550 C   0  0  0  0  0  0  0  0  0  0  0  0
    7.2433   -6.5732   16.0996 C   0  0  0  0  0  0  0  0  0  0  0  0
   11.2113   -2.9375   20.3736 N   0  0  0  0  0  0  0  0  0  0  0  0
   10.1012   -2.4922   24.4961 C   0  0  0  0  0  0  0  0  0  0  0  0
    4.3547   -9.0415   17.0710 C   0  0  0  0  0  0  0  0  0  0  0  0
   10.3269   -3.9179   16.2963 C   0  0  0  0  0  0  0  0  0  0  0  0
   10.2781   -2.6515   23.1526 C   0  0  0  0  0  0  0  0  0  0  0  0
   -0.2327  -11.7752   17.5128 C   0  0  0  0  0  0  0  0  0  0  0  0
   10.7019   -5.0487   20.4019 C   0  0  0  0  0  0  0  0  0  0  0  0
    6.7610   -8.3099   17.6258 C   0  0  0  0  0  0  0  0  0  0  0  0
   11.2778   -4.7621   23.5071 C   0  0  0  0  0  0  0  0  0  0  0  0
   11.0267   -3.1757   19.0974 N   0  0  0  0  0  0  0  0  0  0  0  0
   10.9437   -3.9868   21.1992 C   0  0  0  0  0  0  0  0  0  0  0  0
    9.6092   -7.2425   18.5307 N   0  0  0  0  0  0  0  0  0  0  0  0
   10.0688   -5.2197   18.0202 C   0  0  0  0  0  0  0  0  0  0  0  0
  1  9  4  0
  1 29  4  0
  2  8  4  0
  2 23  4  0
  3 28  4  0
  3 31  4  0
  3 34  1  0
  4 10  4  0
  4 16  4  0
  5  7  4  0
  5 15  4  0
  6 17  4  0
  6 24  4  0
  7 13  4  0
  8 30  4  0
  9 33  4  0
 11 21  4  0
 12 20  4  0
 12 21  1  0
 13 27  4  0
 14 25  4  0
 15 16  4  0
 15 18  4  0
 16 24  1  0
 19 26  4  0
 19 30  4  0
 19 32  1  0
 20 34  4  0
 22 31  4  0
 22 32  4  0
 23 26  4  0
 28 32  4  0
 33 34  4  0
M  END
$$$$

 Created by Python create_sdf_string function

 34 80  0  0  0  0  0  0  0  0999 V2000
    7.4363   -7.0163   17.8145 P   0  0  0  0  0  0  0  0  0  0  0  0
   10.5583   -3.0246   25.0690 C   0  0  0  0  0  0  0  0  0  0  0  0
   10.5438   -4.4720   18.7333 C   0  0  0  0  0  0  0  0  0  0  0  0
    3.8492  -11.4768   19.1726 Br  0  0  0  0  0  0  0  0  0  0  0  0
    1.1533  -10.8177   17.3546 C   0  0  0  0  0  0  0  0  0  0  0  0
    4.5601   -7.9068   16.4610 N   0  0  0  0  0  0  0  0  0  0  0  0
    1.6237  -11.9356   17.9716 N   0  0  0  0  0  0  0  0  0  0  0  0
   10.7985   -4.7042   24.4152 C   0  0  0  0  0  0  0  0  0  0  0  0
    9.3869   -8.7930   17.6413 I   0  0  0  0  0  0  0  0  0  0  0  0
    9.6535   -5.0828   17.8217 S   0  0  0  0  0  0  0  0  0  0  0  0
    0.7655   -9.6160   17.9812 Cl  0  0  0  0  0  0  0  0  0  0  0  0
    3.8661  -11.0453   17.7911 N   0  0  0  0  0  0  0  0  0  0  0  0
    2.0962   -9.6916   17.0281 C   0  0  0  0  0  0  0  0  0  0  0  0
   11.0861   -3.8964   22.8096 C   0  0  0  0  0  0  0  0  0  0  0  0
    9.6873   -6.0089   16.9119 C   0  0  0  0  0  0  0  0  0  0  0  0
    8.1295   -6.6447   14.7248 C   0  0  0  0  0  0  0  0  0  0  0  0
   11.3753   -2.9356   20.8721 N   0  0  0  0  0  0  0  0  0  0  0  0
   10.1896   -2.3361   24.5904 C   0  0  0  0  0  0  0  0  0  0  0  0
   10.7043   -4.2019   16.4226 O   0  0  0  0  0  0  0  0  0  0  0  0
   -0.2228  -11.7383   17.4199 C   0  0  0  0  0  0  0  0  0  0  0  0
   10.2942   -5.0302   20.2765 C   0  0  0  0  0  0  0  0  0  0  0  0
    6.5929   -8.6335   17.8730 C   0  0  0  0  0  0  0  0  0  0  0  0
   11.0245   -4.9149   23.3396 O   0  0  0  0  0  0  0  0  0  0  0  0
   11.2578   -3.1550   18.8172 N   0  0  0  0  0  0  0  0  0  0  0  0
   10.7642   -7.4415   19.1987 N   0  0  0  0  0  0  0  0  0  0  0  0
    8.7285   -5.1698   17.1728 O   0  0  0  0  0  0  0  0  0  0  0  0
    3.7265  -10.8439   18.8828 He  0  0  0  0  0  0  0  0  0  0  0  0
    6.3776   -8.8408   14.9737 He  0  0  0  0  0  0  0  0  0  0  0  0
    0.9503  -12.7491   18.7432 He  0  0  0  0  0  0  0  0  0  0  0  0
   11.7134   -3.7632   17.2256 He  0  0  0  0  0  0  0  0  0  0  0  0
    4.0534   -7.9376   15.9755 He  0  0  0  0  0  0  0  0  0  0  0  0
    3.2149   -8.7623   17.3976 He  0  0  0  0  0  0  0  0  0  0  0  0
   10.1904   -2.4007   23.8355 He  0  0  0  0  0  0  0  0  0  0  0  0
   11.3227   -3.9097   21.0066 He  0  0  0  0  0  0  0  0  0  0  0  0
  1  3  2  0
  1  6  3  0
  1 11  1  0
  1 16  4  0
  1 17  2  0
  1 19  2  0
  1 20  4  0
  2  8  4  0
  2 12  3  0
  2 18  4  0
  2 26  4  0
  3  4  1  0
  3  5  4  0
  3 15  2  0
  3 20  2  0
  3 21  4  0
  3 24  4  0
  4  6  1  0
  4  8  4  0
  4  9  2  0
  4 10  2  0
  4 13  3  0
  4 15  4  0
  4 19  1  0
  5  7  4  0
  5  9  4  0
  5 11  4  0
  5 15  4  0
  5 19  3  0
  6  7  2  0
  6  9  3  0
  6 10  4  0
  6 11  4  0
  6 12  1  0
  6 16  3  0
  7  9  3  0
  7 13  4  0
  7 16  4  0
  7 25  2  0
  7 26  2  0
  8 11  1  0
  8 12  4  0
  8 16  2  0
  8 22  2  0
  8 23  4  0
  9 13  4  0
  9 22  4  0
  9 25  4  0
  9 26  3  0
 10 13  1  0
 10 15  3  0
 10 16  4  0
 10 22  3  0
 10 23  1  0
 11 12  4  0
 11 13  2  0
 11 16  2  0
 11 17  3  0
 11 21  1  0
 11 22  4  0
 11 25  1  0
 12 13  2  0
 12 16  4  0
 12 25  4  0
 13 19  2  0
 13 21  3  0
 13 26  4  0
 14 23  4  0
 15 26  4  0
 16 18  1  0
 16 19  1  0
 16 24  4  0
 17 18  2  0
 17 23  4  0
 17 24  4  0
 17 25  4  0
 19 24  4  0
 19 26  2  0
 24 25  1  0
 25 26  4  0
M  END
$$$$

 Created by Python create_sdf_string function

 34 37  0  0  0  0  0  0  0  0999 V2000
    7.7266   -7.5618   16.9881 C   0  0  0  0  0  0  0  0  0  0  0  0
   10.4737   -3.3973   25.2613 C   0  0  0  0  0  0  0  0  0  0  0  0
   10.7634   -4.3132   19.1347 C   0  0  0  0  0  0  0  0  0  0  0  0
    3.2726  -11.6066   18.9952 N   0  0  0  0  0  0  0  0  0  0  0  0
    1.3643  -10.6872   17.7071 C   0  0  0  0  0  0  0  0  0  0  0  0
    4.7184   -8.0696   16.4649 N   0  0  0  0  0  0  0  0  0  0  0  0
    1.6529  -11.8967   18.6410 N   0  0  0  0  0  0  0  0  0  0  0  0
   10.9517   -4.5736   24.7407 C   0  0  0  0  0  0  0  0  0  0  0  0
    8.6936   -8.0380   17.9548 C   0  0  0  0  0  0  0  0  0  0  0  0
    3.4063  -10.9910   18.4511 C   0  0  0  0  0  0  0  0  0  0  0  0
    6.2440   -7.8845   15.4339 C   0  0  0  0  0  0  0  0  0  0  0  0
   10.3322   -4.7833   17.9779 C   0  0  0  0  0  0  0  0  0  0  0  0
    0.7051  -12.4619   18.4772 N   0  0  0  0  0  0  0  0  0  0  0  0
   10.8018   -3.8044   16.7936 C   0  0  0  0  0  0  0  0  0  0  0  0
    0.8332  -10.2097   17.1919 N   0  0  0  0  0  0  0  0  0  0  0  0
    3.9616  -10.1983   17.9120 N   0  0  0  0  0  0  0  0  0  0  0  0
    4.4789   -8.3370   16.3953 C   0  0  0  0  0  0  0  0  0  0  0  0
    1.8500   -9.4788   16.9866 C   0  0  0  0  0  0  0  0  0  0  0  0
   10.8044   -3.6847   22.6052 C   0  0  0  0  0  0  0  0  0  0  0  0
    9.4374   -5.9201   17.4371 C   0  0  0  0  0  0  0  0  0  0  0  0
    7.3671   -7.2541   15.7357 C   0  0  0  0  0  0  0  0  0  0  0  0
   11.4008   -2.7696   20.4856 N   0  0  0  0  0  0  0  0  0  0  0  0
   10.1834   -2.3255   24.5398 C   0  0  0  0  0  0  0  0  0  0  0  0
    3.6297   -9.0571   16.8956 C   0  0  0  0  0  0  0  0  0  0  0  0
   10.7296   -3.9179   16.5055 O   0  0  0  0  0  0  0  0  0  0  0  0
   10.3959   -2.4631   23.1799 C   0  0  0  0  0  0  0  0  0  0  0  0
   -0.2754  -11.7924   17.7588 C   0  0  0  0  0  0  0  0  0  0  0  0
   10.6219   -4.8480   20.4756 C   0  0  0  0  0  0  0  0  0  0  0  0
    6.9760   -8.3599   17.8519 C   0  0  0  0  0  0  0  0  0  0  0  0
   11.0892   -4.7804   23.4139 C   0  0  0  0  0  0  0  0  0  0  0  0
   11.3159   -2.9747   19.1931 N   0  0  0  0  0  0  0  0  0  0  0  0
   10.9354   -3.7804   21.2720 C   0  0  0  0  0  0  0  0  0  0  0  0
    9.7591   -7.0523   18.2598 N   0  0  0  0  0  0  0  0  0  0  0  0
    9.2814   -5.3165   16.8369 C   0  0  0  0  0  0  0  0  0  0  0  0
  1  9  4  0
  1 21  4  0
  1 29  4  0
  2  8  4  0
  2 23  4  0
  3 12  4  0
  3 28  4  0
  3 31  4  0
  4  7  4  0
  4 10  4  0
  5  7  4  0
  5 15  4  0
  6 17  4  0
  6 24  4  0
  7 13  4  0
  8 30  4  0
  9 29  4  0
  9 33  4  0
 10 16  4  0
 11 21  4  0
 12 20  4  0
 13 27  4  0
 14 25  2  0
 15 18  4  0
 15 27  4  0
 16 24  4  0
 17 24  1  0
 18 24  4  0
 19 26  4  0
 19 30  4  0
 19 32  1  0
 20 33  4  0
 20 34  4  0
 22 31  4  0
 22 32  4  0
 23 26  4  0
 28 32  4  0
M  END
$$$$

 Created by Python create_sdf_string function

 34 55  0  0  0  0  0  0  0  0999 V2000
   10.6263   -3.4008   25.2643 C   0  0  0  0  0  0  0  0  0  0  0  0
   10.6062   -4.8457   19.1490 C   0  0  0  0  0  0  0  0  0  0  0  0
    1.4303  -10.4346   17.7007 C   0  0  0  0  0  0  0  0  0  0  0  0
    4.9632   -8.5217   17.1611 N   0  0  0  0  0  0  0  0  0  0  0  0
    1.8174  -11.4203   17.6779 N   0  0  0  0  0  0  0  0  0  0  0  0
   11.6085   -5.2136   25.0848 C   0  0  0  0  0  0  0  0  0  0  0  0
    2.7501  -10.2029   18.9835 C   0  0  0  0  0  0  0  0  0  0  0  0
    6.8800   -9.0469   16.0021 O   0  0  0  0  0  0  0  0  0  0  0  0
   10.7973   -4.9581   17.8611 C   0  0  0  0  0  0  0  0  0  0  0  0
    1.5422  -11.9291   18.3275 N   0  0  0  0  0  0  0  0  0  0  0  0
   11.8270   -3.7690   17.8330 C   0  0  0  0  0  0  0  0  0  0  0  0
    3.5116   -9.6589   17.0741 C   0  0  0  0  0  0  0  0  0  0  0  0
    1.7072   -9.3783   17.0773 C   0  0  0  0  0  0  0  0  0  0  0  0
   10.7113   -3.7532   22.8340 C   0  0  0  0  0  0  0  0  0  0  0  0
    9.5061   -6.3203   17.5029 C   0  0  0  0  0  0  0  0  0  0  0  0
    7.3623   -7.7282   16.0851 P   0  0  0  0  0  0  0  0  0  0  0  0
   11.4581   -3.0165   20.1338 N   0  0  0  0  0  0  0  0  0  0  0  0
   10.8620   -4.0785   16.4102 O   0  0  0  0  0  0  0  0  0  0  0  0
   10.1040   -2.6392   23.3277 C   0  0  0  0  0  0  0  0  0  0  0  0
    0.3295  -11.6428   17.7065 C   0  0  0  0  0  0  0  0  0  0  0  0
   10.4177   -4.7726   20.8400 C   0  0  0  0  0  0  0  0  0  0  0  0
    6.9062   -8.6686   17.5198 C   0  0  0  0  0  0  0  0  0  0  0  0
   10.8883   -4.9504   23.5855 C   0  0  0  0  0  0  0  0  0  0  0  0
   11.6093   -3.2654   19.2638 N   0  0  0  0  0  0  0  0  0  0  0  0
   10.9264   -3.7912   21.0404 C   0  0  0  0  0  0  0  0  0  0  0  0
   10.9319   -7.0460   17.7616 O   0  0  0  0  0  0  0  0  0  0  0  0
    7.7734   -6.7252   15.8192 He  0  0  0  0  0  0  0  0  0  0  0  0
    2.4921  -12.7701   19.5378 He  0  0  0  0  0  0  0  0  0  0  0  0
    6.6386   -8.2779   17.9703 He  0  0  0  0  0  0  0  0  0  0  0  0
    0.0322  -10.2251   18.7190 He  0  0  0  0  0  0  0  0  0  0  0  0
    3.9574   -8.7156   16.3673 He  0  0  0  0  0  0  0  0  0  0  0  0
   10.4416   -2.1658   24.2639 He  0  0  0  0  0  0  0  0  0  0  0  0
    1.5247   -7.9880   15.6548 He  0  0  0  0  0  0  0  0  0  0  0  0
   10.4011   -6.6102   17.5307 He  0  0  0  0  0  0  0  0  0  0  0  0
  1  6  4  0
  1 10  4  0
  1 11  3  0
  1 14  4  0
  1 18  1  0
  1 19  2  0
  2 21  4  0
  2 26  1  0
  3  5  4  0
  3  7  3  0
  3  8  3  0
  3 10  3  0
  3 24  1  0
  3 25  2  0
  4  5  2  0
  4 10  4  0
  4 24  3  0
  5 18  1  0
  5 21  4  0
  5 24  2  0
  6  9  4  0
  6 15  4  0
  6 23  4  0
  7 18  2  0
  8 10  2  0
  8 11  1  0
  8 13  4  0
  8 18  2  0
  8 25  2  0
  9 10  3  0
  9 14  3  0
  9 16  4  0
  9 19  1  0
 10 12  3  0
 10 17  4  0
 10 20  1  0
 11 12  1  0
 11 16  1  0
 11 17  1  0
 11 18  2  0
 11 21  2  0
 11 23  3  0
 11 26  2  0
 14 19  4  0
 14 23  4  0
 14 25  1  0
 14 26  4  0
 15 26  4  0
 16 21  1  0
 16 23  3  0
 17 23  2  0
 17 24  4  0
 17 25  1  0
 18 23  3  0
 21 25  4  0
M  END
$$$$

 Created by Python create_sdf_string function

 34 35  0  0  0  0  0  0  0  0999 V2000
    7.8846   -7.2966   16.6279 C   0  0  0  0  0  0  0  0  0  0  0  0
   10.7661   -3.4187   25.4242 C   0  0  0  0  0  0  0  0  0  0  0  0
   10.5443   -5.1564   19.3880 C   0  0  0  0  0  0  0  0  0  0  0  0
    2.1608  -12.1916   19.3949 C   0  0  0  0  0  0  0  0  0  0  0  0
    1.9470  -10.5512   17.9176 C   0  0  0  0  0  0  0  0  0  0  0  0
    5.3934   -8.5909   16.9469 N   0  0  0  0  0  0  0  0  0  0  0  0
    1.6399  -11.3236   18.5260 N   0  0  0  0  0  0  0  0  0  0  0  0
   11.1692   -4.6283   24.9095 C   0  0  0  0  0  0  0  0  0  0  0  0
    7.1412   -7.8371   17.9848 C   0  0  0  0  0  0  0  0  0  0  0  0
    3.0690  -10.4546   18.0188 C   0  0  0  0  0  0  0  0  0  0  0  0
    6.5909   -8.5570   15.8275 C   0  0  0  0  0  0  0  0  0  0  0  0
   10.6974   -4.9173   18.3020 C   0  0  0  0  0  0  0  0  0  0  0  0
    1.1641  -12.4150   19.0086 N   0  0  0  0  0  0  0  0  0  0  0  0
   11.0819   -3.7449   17.6308 C   0  0  0  0  0  0  0  0  0  0  0  0
    0.7281  -10.5769   17.4309 C   0  0  0  0  0  0  0  0  0  0  0  0
    3.5075   -9.2984   17.0584 C   0  0  0  0  0  0  0  0  0  0  0  0
    4.1719   -8.8621   16.7469 C   0  0  0  0  0  0  0  0  0  0  0  0
    1.3305   -9.1149   16.7218 C   0  0  0  0  0  0  0  0  0  0  0  0
   10.7647   -3.7525   22.6773 C   0  0  0  0  0  0  0  0  0  0  0  0
    9.4833   -6.4718   17.3029 C   0  0  0  0  0  0  0  0  0  0  0  0
    7.5652   -7.8544   15.7620 C   0  0  0  0  0  0  0  0  0  0  0  0
   11.1947   -2.9593   20.3307 N   0  0  0  0  0  0  0  0  0  0  0  0
   10.3051   -2.4194   24.6156 N   0  0  0  0  0  0  0  0  0  0  0  0
    2.2559   -8.5835   16.2794 C   0  0  0  0  0  0  0  0  0  0  0  0
   11.0727   -3.7674   16.6278 O   0  0  0  0  0  0  0  0  0  0  0  0
   10.2821   -2.5410   23.2186 C   0  0  0  0  0  0  0  0  0  0  0  0
   -0.0796  -11.8259   17.8462 C   0  0  0  0  0  0  0  0  0  0  0  0
   10.5648   -5.0773   20.6506 C   0  0  0  0  0  0  0  0  0  0  0  0
    6.3164   -8.2771   17.7971 C   0  0  0  0  0  0  0  0  0  0  0  0
   11.1437   -4.8298   23.5298 C   0  0  0  0  0  0  0  0  0  0  0  0
   11.2991   -2.9994   19.0679 N   0  0  0  0  0  0  0  0  0  0  0  0
   10.8551   -3.9138   21.3049 C   0  0  0  0  0  0  0  0  0  0  0  0
   10.1642   -6.5858   18.4295 O   0  0  0  0  0  0  0  0  0  0  0  0
    9.7480   -6.4355   17.7921 C   0  0  0  0  0  0  0  0  0  0  0  0
  1  9  4  0
  1 21  4  0
  2  8  4  0
  2 23  4  0
  3 12  4  0
  3 28  4  0
  3 33  1  0
  4  7  4  0
  4 13  4  0
  5  7  4  0
  5 10  4  0
  6 11  4  0
  6 17  1  0
  6 29  4  0
  8 30  4  0
  9 29  4  0
 10 16  4  0
 11 21  4  0
 13 27  4  0
 14 25  2  0
 14 31  4  0
 15 18  4  0
 15 27  1  0
 16 17  1  0
 16 24  4  0
 18 24  4  0
 19 26  4  0
 19 30  4  0
 19 32  1  0
 20 34  2  0
 22 31  4  0
 22 32  4  0
 23 26  4  0
 28 32  4  0
 33 34  1  0
M  END
$$$$

 Created by Python create_sdf_string function

 34 80  0  0  0  0  0  0  0  0999 V2000
    6.9803   -7.4004   16.5005 C   0  0  0  0  0  0  0  0  0  0  0  0
   10.4133   -3.1572   25.6455 N   0  0  0  0  0  0  0  0  0  0  0  0
   10.5268   -5.5827   19.3393 C   0  0  0  0  0  0  0  0  0  0  0  0
    2.3548  -11.9930   19.4339 C   0  0  0  0  0  0  0  0  0  0  0  0
    5.1695   -8.3623   17.2354 N   0  0  0  0  0  0  0  0  0  0  0  0
   11.1896   -4.2863   24.5861 P   0  0  0  0  0  0  0  0  0  0  0  0
    8.0219   -8.0141   17.1475 F   0  0  0  0  0  0  0  0  0  0  0  0
    3.6449   -9.9568   17.0892 P   0  0  0  0  0  0  0  0  0  0  0  0
   11.0566   -4.0763   17.0684 C   0  0  0  0  0  0  0  0  0  0  0  0
    2.8258   -7.8675   17.1661 C   0  0  0  0  0  0  0  0  0  0  0  0
    5.2675   -8.8712   17.6947 C   0  0  0  0  0  0  0  0  0  0  0  0
    1.2046   -8.8199   17.1062 C   0  0  0  0  0  0  0  0  0  0  0  0
   10.6829   -3.8822   22.3466 C   0  0  0  0  0  0  0  0  0  0  0  0
    9.4186   -6.5689   17.0768 O   0  0  0  0  0  0  0  0  0  0  0  0
    7.9903   -8.1734   15.9758 C   0  0  0  0  0  0  0  0  0  0  0  0
   11.1943   -3.1948   19.6929 N   0  0  0  0  0  0  0  0  0  0  0  0
    2.2339   -9.3898   17.4968 C   0  0  0  0  0  0  0  0  0  0  0  0
   11.0691   -3.4164   16.8574 Cl  0  0  0  0  0  0  0  0  0  0  0  0
    9.8984   -2.1813   23.1954 C   0  0  0  0  0  0  0  0  0  0  0  0
   10.4626   -5.2124   20.5329 C   0  0  0  0  0  0  0  0  0  0  0  0
    6.2978   -8.2729   17.5711 C   0  0  0  0  0  0  0  0  0  0  0  0
   11.4173   -4.7534   23.7236 C   0  0  0  0  0  0  0  0  0  0  0  0
   10.9899   -3.3400   18.8721 N   0  0  0  0  0  0  0  0  0  0  0  0
   10.7936   -4.1048   21.8085 C   0  0  0  0  0  0  0  0  0  0  0  0
   10.4156   -7.0931   18.2669 F   0  0  0  0  0  0  0  0  0  0  0  0
    9.8124   -6.5981   18.2508 C   0  0  0  0  0  0  0  0  0  0  0  0
    2.0554  -10.4568   17.6510 He  0  0  0  0  0  0  0  0  0  0  0  0
    1.2675  -11.1589   17.9128 He  0  0  0  0  0  0  0  0  0  0  0  0
    7.9822   -7.4287   15.7642 He  0  0  0  0  0  0  0  0  0  0  0  0
   11.0003   -5.1803   17.6355 He  0  0  0  0  0  0  0  0  0  0  0  0
    2.0097  -11.5987   18.2113 He  0  0  0  0  0  0  0  0  0  0  0  0
    1.0089   -9.6570   18.1869 He  0  0  0  0  0  0  0  0  0  0  0  0
   10.1827   -2.4632   24.4377 He  0  0  0  0  0  0  0  0  0  0  0  0
   -0.0642  -11.6674   17.8018 He  0  0  0  0  0  0  0  0  0  0  0  0
  1 10  4  0
  1 11  1  0
  1 12  4  0
  1 14  1  0
  1 15  4  0
  1 21  4  0
  1 23  2  0
  1 25  2  0
  1 26  3  0
  2  3  2  0
  2  7  3  0
  2  9  4  0
  2 15  1  0
  2 16  1  0
  3  8  1  0
  3 14  4  0
  3 18  2  0
  3 20  4  0
  3 21  1  0
  3 26  4  0
  4  6  3  0
  4  9  2  0
  4 15  2  0
  4 16  2  0
  4 20  1  0
  4 22  2  0
  4 24  3  0
  4 25  3  0
  5  9  2  0
  5 11  1  0
  5 26  2  0
  6 10  2  0
  6 17  1  0
  6 22  4  0
  7 13  3  0
  7 15  1  0
  7 20  1  0
  7 21  3  0
  7 23  3  0
  7 26  3  0
  8  9  2  0
  8 11  3  0
  8 18  1  0
  9 18  4  0
  9 19  2  0
  9 20  3  0
  9 26  3  0
 10 11  1  0
 10 12  3  0
 10 14  1  0
 10 17  4  0
 10 21  4  0
 10 24  2  0
 11 21  1  0
 11 25  3  0
 11 26  2  0
 13 17  4  0
 13 19  2  0
 13 22  4  0
 13 24  1  0
 13 25  4  0
 14 15  1  0
 15 16  1  0
 15 17  2  0
 15 19  4  0
 15 21  4  0
 15 22  4  0
 16 23  2  0
 16 24  4  0
 16 26  2  0
 17 19  2  0
 17 22  3  0
 17 24  1  0
 19 26  3  0
 20 21  3  0
 20 24  4  0
 23 25  1  0
 23 26  1  0
 24 25  1  0
 25 26  1  0
M  END
$$$$

 Created by Python create_sdf_string function

 34 31  0  0  0  0  0  0  0  0999 V2000
    6.7633   -7.3162   16.5342 C   0  0  0  0  0  0  0  0  0  0  0  0
   10.4954   -3.2224   25.3029 N   0  0  0  0  0  0  0  0  0  0  0  0
   10.4526   -5.4990   19.3033 C   0  0  0  0  0  0  0  0  0  0  0  0
    2.3088  -11.7879   18.9810 C   0  0  0  0  0  0  0  0  0  0  0  0
    2.5481  -10.3245   17.8388 C   0  0  0  0  0  0  0  0  0  0  0  0
    5.0303   -8.4723   17.1136 N   0  0  0  0  0  0  0  0  0  0  0  0
    1.4938  -11.0669   18.2752 C   0  0  0  0  0  0  0  0  0  0  0  0
   11.0932   -4.3103   24.8648 N   0  0  0  0  0  0  0  0  0  0  0  0
    8.1361   -8.0699   17.3509 C   0  0  0  0  0  0  0  0  0  0  0  0
    4.0324   -9.8659   17.6819 N   0  0  0  0  0  0  0  0  0  0  0  0
    8.1466   -7.5805   16.0599 C   0  0  0  0  0  0  0  0  0  0  0  0
   10.5733   -4.7590   18.1047 C   0  0  0  0  0  0  0  0  0  0  0  0
    1.4720  -11.9918   18.9430 N   0  0  0  0  0  0  0  0  0  0  0  0
   10.7359   -3.9506   16.8678 C   0  0  0  0  0  0  0  0  0  0  0  0
    0.6093  -10.3643   17.5907 C   0  0  0  0  0  0  0  0  0  0  0  0
    3.1093   -8.2168   16.6096 C   0  0  0  0  0  0  0  0  0  0  0  0
    5.2365   -8.5319   17.1826 C   0  0  0  0  0  0  0  0  0  0  0  0
    1.1754   -8.9544   16.7895 C   0  0  0  0  0  0  0  0  0  0  0  0
   10.7482   -3.7356   22.5488 C   0  0  0  0  0  0  0  0  0  0  0  0
    9.2915   -6.3553   16.9912 O   0  0  0  0  0  0  0  0  0  0  0  0
    7.6781   -7.6444   16.0984 C   0  0  0  0  0  0  0  0  0  0  0  0
   11.0003   -3.1189   20.2034 N   0  0  0  0  0  0  0  0  0  0  0  0
   10.0019   -2.3664   24.4366 N   0  0  0  0  0  0  0  0  0  0  0  0
    2.2757   -8.8423   16.8458 C   0  0  0  0  0  0  0  0  0  0  0  0
   10.8587   -3.8172   16.6716 N   0  0  0  0  0  0  0  0  0  0  0  0
   10.1627   -2.5458   23.0993 C   0  0  0  0  0  0  0  0  0  0  0  0
    0.0890  -11.5927   18.2164 C   0  0  0  0  0  0  0  0  0  0  0  0
   10.6362   -5.2731   20.6907 C   0  0  0  0  0  0  0  0  0  0  0  0
    6.5610   -8.1872   17.5141 C   0  0  0  0  0  0  0  0  0  0  0  0
   11.1898   -4.5789   23.5573 C   0  0  0  0  0  0  0  0  0  0  0  0
   11.0459   -3.2914   18.8559 N   0  0  0  0  0  0  0  0  0  0  0  0
   10.7971   -4.0172   21.1849 C   0  0  0  0  0  0  0  0  0  0  0  0
   10.2435   -7.1709   18.6630 O   0  0  0  0  0  0  0  0  0  0  0  0
    9.8005   -6.5721   17.9864 C   0  0  0  0  0  0  0  0  0  0  0  0
  1 21  4  0
  2  8  4  0
  2 23  4  0
  3 12  4  0
  3 28  4  0
  4  7  4  0
  4 13  4  0
  5 10  4  0
  6 10  4  0
  6 17  1  0
  7 15  4  0
  8 30  4  0
  9 11  4  0
  9 29  4  0
 11 21  4  0
 12 31  4  0
 13 27  4  0
 14 25  4  0
 15 18  4  0
 15 27  4  0
 16 24  4  0
 17 29  1  0
 18 24  4  0
 19 26  4  0
 19 30  4  0
 19 32  1  0
 22 31  4  0
 22 32  4  0
 23 26  4  0
 28 32  4  0
 33 34  1  0
M  END
$$$$

 Created by Python create_sdf_string function

 34 91  0  0  0  0  0  0  0  0999 V2000
    6.8995   -7.8969   15.0196 O   0  0  0  0  0  0  0  0  0  0  0  0
   10.4510   -3.6759   25.0094 N   0  0  0  0  0  0  0  0  0  0  0  0
   10.6613   -5.7034   19.4203 C   0  0  0  0  0  0  0  0  0  0  0  0
    1.1403  -11.1540   18.8200 C   0  0  0  0  0  0  0  0  0  0  0  0
    2.0664  -10.1464   18.5932 C   0  0  0  0  0  0  0  0  0  0  0  0
    5.3091   -8.4680   16.8464 N   0  0  0  0  0  0  0  0  0  0  0  0
   11.2432   -3.8295   24.8176 N   0  0  0  0  0  0  0  0  0  0  0  0
    8.3551   -7.4116   15.9730 C   0  0  0  0  0  0  0  0  0  0  0  0
   10.1660   -4.7876   17.4046 C   0  0  0  0  0  0  0  0  0  0  0  0
   -0.0335  -11.2326   19.3992 N   0  0  0  0  0  0  0  0  0  0  0  0
   11.4086   -3.9626   17.7371 Cl  0  0  0  0  0  0  0  0  0  0  0  0
   -0.3926  -10.8666   18.0127 N   0  0  0  0  0  0  0  0  0  0  0  0
    3.5082   -9.2534   16.9646 C   0  0  0  0  0  0  0  0  0  0  0  0
    4.9948   -7.4600   17.8469 C   0  0  0  0  0  0  0  0  0  0  0  0
    1.3187   -8.9351   16.6873 C   0  0  0  0  0  0  0  0  0  0  0  0
   10.5678   -3.7200   22.5100 C   0  0  0  0  0  0  0  0  0  0  0  0
    9.0621   -6.0887   17.2043 C   0  0  0  0  0  0  0  0  0  0  0  0
    7.7921   -8.4332   16.0458 P   0  0  0  0  0  0  0  0  0  0  0  0
   11.4454   -3.1481   20.4970 N   0  0  0  0  0  0  0  0  0  0  0  0
   11.1044   -3.8087   16.5795 N   0  0  0  0  0  0  0  0  0  0  0  0
   10.1482   -2.9400   23.1481 C   0  0  0  0  0  0  0  0  0  0  0  0
    0.2696  -11.4798   18.2835 C   0  0  0  0  0  0  0  0  0  0  0  0
   10.4073   -5.4861   20.8842 C   0  0  0  0  0  0  0  0  0  0  0  0
    6.3780   -8.2513   17.3036 C   0  0  0  0  0  0  0  0  0  0  0  0
   11.0206   -4.4136   23.3305 C   0  0  0  0  0  0  0  0  0  0  0  0
   10.7877   -3.3566   18.8116 N   0  0  0  0  0  0  0  0  0  0  0  0
   10.8663   -4.1022   21.2359 O   0  0  0  0  0  0  0  0  0  0  0  0
   10.4328   -7.3403   17.4311 C   0  0  0  0  0  0  0  0  0  0  0  0
    1.5451  -10.9622   17.7292 He  0  0  0  0  0  0  0  0  0  0  0  0
    8.0428   -7.4815   17.3840 He  0  0  0  0  0  0  0  0  0  0  0  0
    4.2627  -10.4385   17.1053 He  0  0  0  0  0  0  0  0  0  0  0  0
   10.4658   -2.0221   24.4142 He  0  0  0  0  0  0  0  0  0  0  0  0
    0.7383   -7.5279   17.1395 He  0  0  0  0  0  0  0  0  0  0  0  0
   10.2505   -7.2154   17.9843 He  0  0  0  0  0  0  0  0  0  0  0  0
  1  3  1  0
  1  8  4  0
  1  9  1  0
  1 16  4  0
  1 20  4  0
  1 23  1  0
  1 24  1  0
  2  5  3  0
  2  7  4  0
  2  8  3  0
  2 12  1  0
  3  9  4  0
  3 13  4  0
  3 20  4  0
  3 23  4  0
  3 28  3  0
  4 10  4  0
  4 15  3  0
  4 17  3  0
  4 18  1  0
  4 22  4  0
  4 27  3  0
  5 14  2  0
  5 27  3  0
  6 14  2  0
  7 10  3  0
  7 12  3  0
  7 13  2  0
  7 25  2  0
  8 12  1  0
  8 16  4  0
  8 17  2  0
  8 21  3  0
  8 23  2  0
  8 28  4  0
  9 11  2  0
  9 21  4  0
  9 26  2  0
  9 28  1  0
 10 11  3  0
 10 13  4  0
 10 14  2  0
 10 15  4  0
 10 22  4  0
 10 23  4  0
 10 25  4  0
 11 19  2  0
 11 20  4  0
 11 25  3  0
 12 15  4  0
 12 18  4  0
 12 19  4  0
 12 21  4  0
 12 24  4  0
 12 25  1  0
 12 26  1  0
 12 27  3  0
 13 14  2  0
 13 16  4  0
 13 19  3  0
 13 24  1  0
 13 28  1  0
 14 18  4  0
 14 20  1  0
 14 22  3  0
 14 23  1  0
 14 25  1  0
 14 27  4  0
 14 28  1  0
 15 28  4  0
 16 18  3  0
 16 21  4  0
 16 25  4  0
 16 27  1  0
 17 18  4  0
 17 28  4  0
 18 20  2  0
 18 21  4  0
 18 24  2  0
 18 27  3  0
 19 20  3  0
 19 26  1  0
 19 27  4  0
 20 22  1  0
 20 23  1  0
 21 24  4  0
 21 26  1  0
 23 24  4  0
 23 27  1  0
 24 26  1  0
 24 27  1  0
M  END
$$$$

 Created by Python create_sdf_string function

 34 36  0  0  0  0  0  0  0  0999 V2000
    7.4957   -8.1416   15.4815 C   0  0  0  0  0  0  0  0  0  0  0  0
   10.6229   -3.2502   25.2655 N   0  0  0  0  0  0  0  0  0  0  0  0
   10.5292   -5.6573   19.3532 C   0  0  0  0  0  0  0  0  0  0  0  0
    1.4493  -11.3334   19.0783 C   0  0  0  0  0  0  0  0  0  0  0  0
    2.6563  -10.5234   18.0462 C   0  0  0  0  0  0  0  0  0  0  0  0
    5.0881   -8.7483   16.9101 N   0  0  0  0  0  0  0  0  0  0  0  0
    1.6136  -10.6391   18.1574 C   0  0  0  0  0  0  0  0  0  0  0  0
   11.0775   -4.3630   24.8292 N   0  0  0  0  0  0  0  0  0  0  0  0
    7.6203   -7.2701   17.6627 C   0  0  0  0  0  0  0  0  0  0  0  0
    3.8541   -9.7850   17.4303 C   0  0  0  0  0  0  0  0  0  0  0  0
    8.4668   -7.3504   15.7654 C   0  0  0  0  0  0  0  0  0  0  0  0
   10.5456   -4.9212   18.1529 C   0  0  0  0  0  0  0  0  0  0  0  0
    0.1783  -11.6631   19.1710 N   0  0  0  0  0  0  0  0  0  0  0  0
   10.7943   -3.9135   17.7575 C   0  0  0  0  0  0  0  0  0  0  0  0
    0.2082  -10.4142   17.8190 N   0  0  0  0  0  0  0  0  0  0  0  0
    2.9556   -8.7114   16.7629 C   0  0  0  0  0  0  0  0  0  0  0  0
    4.8985   -8.1777   17.2848 C   0  0  0  0  0  0  0  0  0  0  0  0
    1.3054   -8.9638   16.7720 C   0  0  0  0  0  0  0  0  0  0  0  0
   10.7639   -3.7444   22.5361 C   0  0  0  0  0  0  0  0  0  0  0  0
    8.7648   -6.6610   17.2390 C   0  0  0  0  0  0  0  0  0  0  0  0
    6.9661   -8.3758   16.1786 C   0  0  0  0  0  0  0  0  0  0  0  0
   11.0678   -3.1368   20.2151 N   0  0  0  0  0  0  0  0  0  0  0  0
   10.1046   -2.3402   24.4281 C   0  0  0  0  0  0  0  0  0  0  0  0
    1.2103   -8.4844   16.4907 C   0  0  0  0  0  0  0  0  0  0  0  0
   10.8727   -3.8879   16.7135 N   0  0  0  0  0  0  0  0  0  0  0  0
   10.2159   -2.5543   23.0419 C   0  0  0  0  0  0  0  0  0  0  0  0
   -0.2679  -11.4815   18.3983 C   0  0  0  0  0  0  0  0  0  0  0  0
   10.6051   -5.3453   20.6795 C   0  0  0  0  0  0  0  0  0  0  0  0
    6.7318   -8.1338   17.0982 C   0  0  0  0  0  0  0  0  0  0  0  0
   11.1692   -4.6350   23.4695 C   0  0  0  0  0  0  0  0  0  0  0  0
   11.1234   -3.2605   18.8819 N   0  0  0  0  0  0  0  0  0  0  0  0
   10.8129   -4.0614   21.1447 C   0  0  0  0  0  0  0  0  0  0  0  0
   10.3210   -7.1726   18.7600 N   0  0  0  0  0  0  0  0  0  0  0  0
    9.7395   -6.5180   17.7873 C   0  0  0  0  0  0  0  0  0  0  0  0
  1 11  4  0
  1 21  4  0
  2  8  4  0
  2 23  4  0
  3 12  4  0
  3 28  4  0
  3 33  1  0
  4  7  4  0
  4 13  4  0
  5  7  4  0
  5 10  4  0
  6 10  1  0
  6 17  1  0
  7 15  4  0
  8 30  4  0
  9 20  4  0
  9 29  4  0
 10 16  4  0
 12 14  4  0
 12 34  1  0
 13 27  4  0
 14 25  1  0
 14 31  4  0
 15 27  4  0
 16 18  4  0
 18 24  4  0
 19 26  4  0
 19 30  4  0
 19 32  1  0
 20 34  4  0
 21 29  4  0
 22 31  4  0
 22 32  4  0
 23 26  4  0
 28 32  4  0
 33 34  4  0
M  END
$$$$

 Created by Python create_sdf_string function

 34103  0  0  0  0  0  0  0  0999 V2000
    7.9042   -8.4881   16.3729 C   0  0  0  0  0  0  0  0  0  0  0  0
   10.7861   -3.0644   25.2649 N   0  0  0  0  0  0  0  0  0  0  0  0
   10.7261   -5.3011   19.1539 C   0  0  0  0  0  0  0  0  0  0  0  0
    2.5588  -12.3227   19.1960 C   0  0  0  0  0  0  0  0  0  0  0  0
    2.4957  -10.5024   17.8138 C   0  0  0  0  0  0  0  0  0  0  0  0
    0.6759  -10.3842   17.4134 F   0  0  0  0  0  0  0  0  0  0  0  0
   11.3750   -4.8252   24.4290 N   0  0  0  0  0  0  0  0  0  0  0  0
    7.1962   -7.6518   17.6693 S   0  0  0  0  0  0  0  0  0  0  0  0
    5.3657   -8.8965   15.8376 C   0  0  0  0  0  0  0  0  0  0  0  0
   12.0364   -6.0575   18.5753 N   0  0  0  0  0  0  0  0  0  0  0  0
   -0.1072  -12.0329   19.3817 N   0  0  0  0  0  0  0  0  0  0  0  0
    0.2476   -9.7682   18.9197 N   0  0  0  0  0  0  0  0  0  0  0  0
    2.6812   -9.0040   16.8715 C   0  0  0  0  0  0  0  0  0  0  0  0
    5.0264   -7.3874   17.5290 O   0  0  0  0  0  0  0  0  0  0  0  0
    1.2836   -9.0407   16.5764 F   0  0  0  0  0  0  0  0  0  0  0  0
   11.0266   -3.3958   22.3371 N   0  0  0  0  0  0  0  0  0  0  0  0
    6.2034   -8.9822   16.5918 C   0  0  0  0  0  0  0  0  0  0  0  0
   11.1516   -3.2262   20.5047 N   0  0  0  0  0  0  0  0  0  0  0  0
    9.8564   -2.2362   24.5421 C   0  0  0  0  0  0  0  0  0  0  0  0
    0.9947   -8.1060   16.4786 F   0  0  0  0  0  0  0  0  0  0  0  0
   10.9749   -3.7869   16.7012 N   0  0  0  0  0  0  0  0  0  0  0  0
   10.1396   -2.5169   22.8522 C   0  0  0  0  0  0  0  0  0  0  0  0
   -0.0395  -11.3974   18.0937 C   0  0  0  0  0  0  0  0  0  0  0  0
   10.8162   -5.2533   20.4878 C   0  0  0  0  0  0  0  0  0  0  0  0
    7.1408   -8.3877   17.5326 C   0  0  0  0  0  0  0  0  0  0  0  0
   11.4403   -4.2867   23.5253 C   0  0  0  0  0  0  0  0  0  0  0  0
   11.1747   -3.3342   19.1415 N   0  0  0  0  0  0  0  0  0  0  0  0
   11.2336   -4.5211   20.9366 C   0  0  0  0  0  0  0  0  0  0  0  0
    9.9547   -8.0549   18.5256 O   0  0  0  0  0  0  0  0  0  0  0  0
    9.6027   -6.6585   18.3356 C   0  0  0  0  0  0  0  0  0  0  0  0
    4.8607   -8.9505   16.4932 He  0  0  0  0  0  0  0  0  0  0  0  0
    8.6075   -7.2106   15.0774 He  0  0  0  0  0  0  0  0  0  0  0  0
   10.8985   -4.3802   17.1907 He  0  0  0  0  0  0  0  0  0  0  0  0
    8.3319   -6.7818   17.2203 He  0  0  0  0  0  0  0  0  0  0  0  0
  1  2  3  0
  1  8  1  0
  1 11  2  0
  1 14  1  0
  1 15  3  0
  1 19  2  0
  1 23  1  0
  1 24  3  0
  1 26  4  0
  2  7  4  0
  2 19  4  0
  2 28  2  0
  3  6  4  0
  3 10  3  0
  3 12  4  0
  3 13  1  0
  3 15  2  0
  3 19  2  0
  3 24  4  0
  3 26  1  0
  3 29  1  0
  4  6  1  0
  4 11  2  0
  4 14  4  0
  4 16  4  0
  5  9  4  0
  5 12  3  0
  5 20  4  0
  6  9  2  0
  6 10  4  0
  6 11  4  0
  6 13  1  0
  6 15  3  0
  6 17  4  0
  6 19  4  0
  6 20  4  0
  6 21  2  0
  6 22  3  0
  6 23  1  0
  7  9  2  0
  7 14  4  0
  7 20  1  0
  7 26  4  0
  8 12  3  0
  8 13  3  0
  8 23  1  0
  8 28  3  0
  9 12  1  0
  9 14  3  0
  9 16  1  0
  9 20  1  0
  9 30  3  0
 10 11  4  0
 10 12  3  0
 10 14  3  0
 10 16  3  0
 10 25  4  0
 10 26  2  0
 10 27  4  0
 11 16  1  0
 11 17  4  0
 11 24  2  0
 11 27  3  0
 11 29  4  0
 12 20  3  0
 12 23  4  0
 12 25  2  0
 12 27  4  0
 12 30  1  0
 13 17  2  0
 13 19  1  0
 13 24  2  0
 14 18  1  0
 14 20  3  0
 14 24  4  0
 14 26  1  0
 14 29  1  0
 14 30  4  0
 15 16  2  0
 15 20  4  0
 15 23  1  0
 16 25  2  0
 16 26  4  0
 16 28  1  0
 17 18  1  0
 17 25  4  0
 17 28  3  0
 18 27  4  0
 18 28  4  0
 18 29  2  0
 19 22  4  0
 19 27  4  0
 19 29  2  0
 20 23  2  0
 20 25  2  0
 21 30  1  0
 23 28  2  0
 24 25  4  0
 24 28  4  0
 25 27  2  0
 25 29  2  0
 28 29  3  0
 29 30  4  0
M  END
$$$$

 Created by Python create_sdf_string function

 34 35  0  0  0  0  0  0  0  0999 V2000
    7.7138   -8.2390   16.0754 C   0  0  0  0  0  0  0  0  0  0  0  0
   10.6110   -3.2683   25.2428 N   0  0  0  0  0  0  0  0  0  0  0  0
   10.6966   -5.6202   19.4580 C   0  0  0  0  0  0  0  0  0  0  0  0
    1.8656  -11.7186   19.1949 C   0  0  0  0  0  0  0  0  0  0  0  0
    2.5318  -10.3644   17.8828 C   0  0  0  0  0  0  0  0  0  0  0  0
    4.2986   -8.8455   16.8546 C   0  0  0  0  0  0  0  0  0  0  0  0
    0.7820  -10.0871   17.6740 C   0  0  0  0  0  0  0  0  0  0  0  0
   11.2884   -4.3380   24.8137 N   0  0  0  0  0  0  0  0  0  0  0  0
    7.5670   -7.6232   17.4877 C   0  0  0  0  0  0  0  0  0  0  0  0
    5.2480   -9.2170   15.9799 C   0  0  0  0  0  0  0  0  0  0  0  0
    8.4982   -7.6525   15.5454 C   0  0  0  0  0  0  0  0  0  0  0  0
   10.8440   -4.6947   18.5636 C   0  0  0  0  0  0  0  0  0  0  0  0
    0.4543  -12.0142   19.3626 N   0  0  0  0  0  0  0  0  0  0  0  0
   10.6465   -4.8917   17.1905 C   0  0  0  0  0  0  0  0  0  0  0  0
    0.0996  -10.9893   18.5252 N   0  0  0  0  0  0  0  0  0  0  0  0
    2.9574   -9.2319   16.9659 C   0  0  0  0  0  0  0  0  0  0  0  0
    5.2066   -8.0550   17.6309 C   0  0  0  0  0  0  0  0  0  0  0  0
    1.8596   -8.6022   16.3714 C   0  0  0  0  0  0  0  0  0  0  0  0
   10.8890   -3.7495   22.5480 C   0  0  0  0  0  0  0  0  0  0  0  0
    8.7412   -6.7006   17.3370 N   0  0  0  0  0  0  0  0  0  0  0  0
    6.4405   -9.0249   15.8213 C   0  0  0  0  0  0  0  0  0  0  0  0
   11.2525   -3.1351   20.2127 N   0  0  0  0  0  0  0  0  0  0  0  0
   10.0831   -2.3606   24.3763 C   0  0  0  0  0  0  0  0  0  0  0  0
    0.9785   -8.9467   16.5960 C   0  0  0  0  0  0  0  0  0  0  0  0
   10.8502   -4.2128   16.3322 N   0  0  0  0  0  0  0  0  0  0  0  0
   10.2574   -2.5830   23.0176 C   0  0  0  0  0  0  0  0  0  0  0  0
    0.2208  -10.7672   18.2021 C   0  0  0  0  0  0  0  0  0  0  0  0
   10.8454   -5.3004   20.7586 C   0  0  0  0  0  0  0  0  0  0  0  0
    6.3892   -7.8214   17.6062 C   0  0  0  0  0  0  0  0  0  0  0  0
   11.3929   -4.6384   23.5127 C   0  0  0  0  0  0  0  0  0  0  0  0
   11.1814   -3.4291   18.8658 N   0  0  0  0  0  0  0  0  0  0  0  0
   10.9803   -4.0283   21.1818 C   0  0  0  0  0  0  0  0  0  0  0  0
   10.1166   -7.4256   18.9416 O   0  0  0  0  0  0  0  0  0  0  0  0
    9.6520   -6.6301   18.0076 C   0  0  0  0  0  0  0  0  0  0  0  0
  1  9  4  0
  1 11  1  0
  1 21  4  0
  2  8  4  0
  2 23  4  0
  3 12  4  0
  3 28  4  0
  4  5  4  0
  4 13  4  0
  5 16  4  0
  6 10  4  0
  6 16  1  0
  6 17  4  0
  7 24  4  0
  7 27  1  0
  8 30  4  0
  9 20  1  0
  9 29  4  0
 10 21  4  0
 12 14  4  0
 12 31  4  0
 14 25  1  0
 15 27  4  0
 16 18  4  0
 17 29  4  0
 18 24  4  0
 19 26  4  0
 19 30  4  0
 19 32  1  0
 20 34  1  0
 22 31  4  0
 22 32  4  0
 23 26  4  0
 28 32  4  0
 33 34  4  0
M  END
$$$$

 Created by Python create_sdf_string function

 34 71  0  0  0  0  0  0  0  0999 V2000
    6.8565   -8.8286   16.3508 C   0  0  0  0  0  0  0  0  0  0  0  0
   10.9827   -3.4095   24.8798 N   0  0  0  0  0  0  0  0  0  0  0  0
   11.0065   -5.2452   19.2865 C   0  0  0  0  0  0  0  0  0  0  0  0
    1.3936  -11.2607   18.5756 C   0  0  0  0  0  0  0  0  0  0  0  0
    2.6179  -10.3048   17.5500 C   0  0  0  0  0  0  0  0  0  0  0  0
    4.4259   -8.9137   16.8293 C   0  0  0  0  0  0  0  0  0  0  0  0
   -0.1504  -10.8228   16.3291 C   0  0  0  0  0  0  0  0  0  0  0  0
   11.3317   -4.5411   24.8896 N   0  0  0  0  0  0  0  0  0  0  0  0
    4.5120   -8.7571   16.5667 N   0  0  0  0  0  0  0  0  0  0  0  0
    8.4771   -7.7893   15.2717 C   0  0  0  0  0  0  0  0  0  0  0  0
   10.3438   -5.6825   17.9506 N   0  0  0  0  0  0  0  0  0  0  0  0
    1.2620  -11.3847   19.8820 N   0  0  0  0  0  0  0  0  0  0  0  0
    2.3666   -8.3848   16.7486 O   0  0  0  0  0  0  0  0  0  0  0  0
    1.9371   -8.4878   16.3252 C   0  0  0  0  0  0  0  0  0  0  0  0
   11.0323   -3.7042   22.5043 C   0  0  0  0  0  0  0  0  0  0  0  0
    8.7357   -6.8125   17.2754 N   0  0  0  0  0  0  0  0  0  0  0  0
    7.3055   -9.0949   15.7783 Cl  0  0  0  0  0  0  0  0  0  0  0  0
   11.3341   -3.0659   20.3300 N   0  0  0  0  0  0  0  0  0  0  0  0
    9.7129   -2.4023   24.2871 C   0  0  0  0  0  0  0  0  0  0  0  0
   10.7279   -4.3954   16.1538 C   0  0  0  0  0  0  0  0  0  0  0  0
    9.8983   -2.8340   22.9715 C   0  0  0  0  0  0  0  0  0  0  0  0
    0.1334  -10.6503   18.2641 C   0  0  0  0  0  0  0  0  0  0  0  0
   10.9106   -5.8677   21.1560 C   0  0  0  0  0  0  0  0  0  0  0  0
    6.2387   -7.6496   17.6949 F   0  0  0  0  0  0  0  0  0  0  0  0
   10.7136   -3.8953   21.3627 C   0  0  0  0  0  0  0  0  0  0  0  0
   11.0347   -7.1453   18.2324 N   0  0  0  0  0  0  0  0  0  0  0  0
    7.7323   -6.5157   19.0030 He  0  0  0  0  0  0  0  0  0  0  0  0
    9.9382   -4.8980   18.2101 He  0  0  0  0  0  0  0  0  0  0  0  0
   -0.0881  -10.8265   18.2554 He  0  0  0  0  0  0  0  0  0  0  0  0
    4.5527   -7.0773   18.8602 He  0  0  0  0  0  0  0  0  0  0  0  0
    1.0967   -9.4554   16.1320 He  0  0  0  0  0  0  0  0  0  0  0  0
   11.4104   -4.6790   23.8091 He  0  0  0  0  0  0  0  0  0  0  0  0
   11.0571   -3.7534   18.3818 He  0  0  0  0  0  0  0  0  0  0  0  0
    9.1670   -6.8617   18.2292 He  0  0  0  0  0  0  0  0  0  0  0  0
  1  6  4  0
  1  7  4  0
  1 10  1  0
  1 12  3  0
  1 14  4  0
  1 16  2  0
  1 17  3  0
  1 19  4  0
  1 20  1  0
  2  8  4  0
  2 12  1  0
  2 19  4  0
  2 22  4  0
  2 23  3  0
  3  6  3  0
  3  9  4  0
  3 11  4  0
  3 12  2  0
  3 13  2  0
  3 19  1  0
  3 21  1  0
  3 23  4  0
  4  5  4  0
  4  9  1  0
  4 13  4  0
  4 14  2  0
  4 15  4  0
  4 16  1  0
  4 18  2  0
  4 24  1  0
  5 12  4  0
  5 13  4  0
  6  7  4  0
  6  9  4  0
  6 10  1  0
  6 12  4  0
  7  8  3  0
  7 12  2  0
  7 13  4  0
  7 24  3  0
  7 25  1  0
  8 10  3  0
  8 13  2  0
  9 11  2  0
  9 14  2  0
  9 16  4  0
  9 18  3  0
  9 22  1  0
 10 15  4  0
 11 21  3  0
 11 23  2  0
 12 23  3  0
 12 26  4  0
 13 14  4  0
 13 15  2  0
 13 26  4  0
 14 17  1  0
 14 19  2  0
 14 26  4  0
 15 17  3  0
 15 21  2  0
 15 22  4  0
 15 25  1  0
 16 17  2  0
 16 26  1  0
 18 25  4  0
 18 26  1  0
 19 21  4  0
 19 22  2  0
 19 26  3  0
 23 25  4  0
M  END
$$$$

 Created by Python create_sdf_string function

 34 33  0  0  0  0  0  0  0  0999 V2000
    6.7615   -8.4267   16.2953 C   0  0  0  0  0  0  0  0  0  0  0  0
   10.6584   -3.3811   25.2465 N   0  0  0  0  0  0  0  0  0  0  0  0
   10.6559   -5.6471   19.5146 C   0  0  0  0  0  0  0  0  0  0  0  0
    1.5009  -10.9093   18.6551 C   0  0  0  0  0  0  0  0  0  0  0  0
    2.5868  -10.2894   18.1098 C   0  0  0  0  0  0  0  0  0  0  0  0
    4.6814   -8.6261   16.8670 C   0  0  0  0  0  0  0  0  0  0  0  0
    0.2605  -10.1582   16.9161 C   0  0  0  0  0  0  0  0  0  0  0  0
   11.3655   -4.4021   24.8304 N   0  0  0  0  0  0  0  0  0  0  0  0
    7.8712   -6.9535   17.7943 C   0  0  0  0  0  0  0  0  0  0  0  0
    4.4239   -8.8370   16.4410 N   0  0  0  0  0  0  0  0  0  0  0  0
    8.4725   -8.0701   15.4757 C   0  0  0  0  0  0  0  0  0  0  0  0
   10.5809   -4.8201   18.5815 C   0  0  0  0  0  0  0  0  0  0  0  0
    1.4497  -11.5694   19.7811 N   0  0  0  0  0  0  0  0  0  0  0  0
    9.9419   -5.1048   17.2947 C   0  0  0  0  0  0  0  0  0  0  0  0
   -0.5743  -11.4781   18.3358 O   0  0  0  0  0  0  0  0  0  0  0  0
    2.6450   -9.3917   16.9812 C   0  0  0  0  0  0  0  0  0  0  0  0
    5.0838   -7.8149   17.9353 C   0  0  0  0  0  0  0  0  0  0  0  0
    2.4596   -8.8135   16.2619 C   0  0  0  0  0  0  0  0  0  0  0  0
   10.8447   -3.8390   22.5705 C   0  0  0  0  0  0  0  0  0  0  0  0
    8.8104   -6.8110   17.3862 N   0  0  0  0  0  0  0  0  0  0  0  0
    7.2409   -8.5798   15.8350 C   0  0  0  0  0  0  0  0  0  0  0  0
   11.0849   -3.1803   20.2291 N   0  0  0  0  0  0  0  0  0  0  0  0
   10.0018   -2.5269   24.4345 C   0  0  0  0  0  0  0  0  0  0  0  0
    1.1139   -9.4314   16.1158 C   0  0  0  0  0  0  0  0  0  0  0  0
   10.2538   -4.3961   16.3443 C   0  0  0  0  0  0  0  0  0  0  0  0
   10.1039   -2.7191   23.0557 C   0  0  0  0  0  0  0  0  0  0  0  0
    0.3023  -10.8921   17.9957 C   0  0  0  0  0  0  0  0  0  0  0  0
   10.8207   -5.4039   20.7655 C   0  0  0  0  0  0  0  0  0  0  0  0
    6.2381   -7.4583   17.9018 C   0  0  0  0  0  0  0  0  0  0  0  0
   11.4246   -4.7020   23.5385 C   0  0  0  0  0  0  0  0  0  0  0  0
   10.9004   -3.4376   18.9015 C   0  0  0  0  0  0  0  0  0  0  0  0
   10.9525   -4.1068   21.2321 C   0  0  0  0  0  0  0  0  0  0  0  0
   10.3138   -7.0519   18.9422 N   0  0  0  0  0  0  0  0  0  0  0  0
    9.3275   -7.2963   17.9579 C   0  0  0  0  0  0  0  0  0  0  0  0
  1 21  4  0
  2  8  4  0
  2 23  4  0
  3 12  4  0
  3 28  4  0
  3 33  1  0
  4  5  4  0
  4 13  1  0
  4 27  4  0
  5 16  4  0
  6 10  4  0
  6 17  4  0
  7 24  4  0
  7 27  4  0
  8 30  4  0
  9 20  4  0
 12 14  1  0
 12 31  4  0
 14 20  1  0
 14 25  1  0
 15 27  1  0
 16 18  4  0
 17 29  4  0
 18 24  4  0
 19 26  4  0
 19 30  4  0
 19 32  1  0
 20 34  4  0
 22 31  4  0
 22 32  4  0
 23 26  4  0
 28 32  4  0
 33 34  4  0
M  END
$$$$

 Created by Python create_sdf_string function

 34110  0  0  0  0  0  0  0  0999 V2000
    6.9859   -8.6128   16.3727 N   0  0  0  0  0  0  0  0  0  0  0  0
   10.6048   -2.8781   25.3545 N   0  0  0  0  0  0  0  0  0  0  0  0
   10.5355   -5.7114   19.6685 C   0  0  0  0  0  0  0  0  0  0  0  0
    1.8228   -9.0290   18.4862 C   0  0  0  0  0  0  0  0  0  0  0  0
    2.4293  -10.5792   17.3373 C   0  0  0  0  0  0  0  0  0  0  0  0
    4.6320   -8.4862   16.9301 C   0  0  0  0  0  0  0  0  0  0  0  0
    0.8226  -10.7660   16.8535 C   0  0  0  0  0  0  0  0  0  0  0  0
   11.1910   -4.5218   25.4021 N   0  0  0  0  0  0  0  0  0  0  0  0
    7.0913   -6.4324   17.5801 F   0  0  0  0  0  0  0  0  0  0  0  0
    4.4444   -7.8518   17.2131 F   0  0  0  0  0  0  0  0  0  0  0  0
    9.3331   -7.6939   15.9289 C   0  0  0  0  0  0  0  0  0  0  0  0
   10.9512   -5.1616   18.1707 C   0  0  0  0  0  0  0  0  0  0  0  0
   -0.3758  -11.7366   19.4106 O   0  0  0  0  0  0  0  0  0  0  0  0
    2.4218   -8.9949   16.9721 C   0  0  0  0  0  0  0  0  0  0  0  0
    4.5311   -6.3299   17.6511 S   0  0  0  0  0  0  0  0  0  0  0  0
    2.1908   -8.7301   15.9526 C   0  0  0  0  0  0  0  0  0  0  0  0
   10.4562   -3.5763   22.6667 C   0  0  0  0  0  0  0  0  0  0  0  0
    8.6595   -6.8402   17.3040 N   0  0  0  0  0  0  0  0  0  0  0  0
   11.4893   -2.9191   20.3785 N   0  0  0  0  0  0  0  0  0  0  0  0
   10.0658   -2.1073   24.5844 C   0  0  0  0  0  0  0  0  0  0  0  0
    0.4030  -10.1847   15.3214 S   0  0  0  0  0  0  0  0  0  0  0  0
   10.1804   -4.1375   16.8577 C   0  0  0  0  0  0  0  0  0  0  0  0
    0.1455  -11.0824   17.9941 C   0  0  0  0  0  0  0  0  0  0  0  0
   10.9974   -5.7200   21.0971 C   0  0  0  0  0  0  0  0  0  0  0  0
    6.5039   -7.6286   17.7906 C   0  0  0  0  0  0  0  0  0  0  0  0
   11.6246   -4.2103   23.2286 C   0  0  0  0  0  0  0  0  0  0  0  0
   10.7536   -2.8602   19.0762 C   0  0  0  0  0  0  0  0  0  0  0  0
   11.1187   -4.3205   21.3501 C   0  0  0  0  0  0  0  0  0  0  0  0
   10.1747   -7.3904   19.9192 O   0  0  0  0  0  0  0  0  0  0  0  0
    8.8556   -6.2991   18.6102 C   0  0  0  0  0  0  0  0  0  0  0  0
    0.7832  -11.7828   21.4263 He  0  0  0  0  0  0  0  0  0  0  0  0
    9.7379   -4.4801   17.3422 He  0  0  0  0  0  0  0  0  0  0  0  0
    7.6524   -9.5188   16.1074 He  0  0  0  0  0  0  0  0  0  0  0  0
   10.4225   -3.2707   23.0915 He  0  0  0  0  0  0  0  0  0  0  0  0
  1  2  2  0
  1 15  2  0
  1 19  1  0
  1 20  3  0
  2  5  2  0
  2  8  4  0
  2 13  3  0
  2 15  4  0
  2 20  4  0
  2 21  2  0
  2 23  4  0
  2 29  3  0
  3 15  2  0
  3 20  1  0
  3 27  1  0
  3 29  1  0
  4  5  4  0
  4  8  4  0
  4 10  1  0
  4 15  4  0
  4 16  2  0
  4 21  3  0
  4 23  4  0
  4 25  3  0
  4 29  3  0
  5 11  1  0
  5 14  4  0
  6 10  4  0
  6 15  4  0
  6 21  3  0
  6 25  4  0
  6 28  4  0
  6 30  2  0
  7  8  3  0
  7 12  1  0
  7 20  4  0
  7 21  4  0
  7 23  4  0
  7 24  4  0
  7 25  1  0
  7 30  2  0
  8 10  3  0
  8 11  1  0
  8 12  2  0
  8 14  4  0
  8 21  4  0
  8 24  2  0
  8 26  2  0
  8 27  2  0
  8 29  4  0
  9 12  4  0
  9 13  1  0
  9 18  4  0
  9 21  4  0
  9 24  1  0
  9 28  1  0
 10 12  3  0
 10 20  4  0
 10 28  4  0
 10 30  4  0
 11 13  1  0
 11 16  1  0
 11 18  2  0
 11 19  4  0
 11 24  3  0
 11 25  2  0
 11 27  1  0
 11 30  3  0
 12 14  2  0
 12 15  3  0
 12 19  4  0
 12 20  3  0
 12 22  4  0
 12 24  1  0
 12 29  3  0
 13 15  2  0
 13 20  3  0
 13 23  1  0
 13 24  3  0
 13 28  1  0
 13 30  1  0
 14 20  4  0
 14 24  1  0
 14 29  1  0
 15 23  1  0
 15 25  4  0
 15 26  3  0
 15 27  1  0
 15 30  1  0
 16 21  4  0
 16 27  2  0
 17 20  3  0
 17 22  3  0
 17 26  4  0
 17 28  1  0
 18 25  3  0
 18 28  3  0
 19 21  3  0
 19 27  4  0
 19 28  4  0
 21 25  3  0
 21 29  3  0
 22 25  3  0
 22 30  1  0
 24 28  4  0
 25 27  1  0
 25 29  4  0
 28 29  1  0
 28 30  4  0
 29 30  4  0
M  END
$$$$

 Created by Python create_sdf_string function

 34 36  0  0  0  0  0  0  0  0999 V2000
    6.9414   -8.6563   16.2702 N   0  0  0  0  0  0  0  0  0  0  0  0
   10.5451   -3.0915   25.3940 N   0  0  0  0  0  0  0  0  0  0  0  0
   10.5034   -5.6019   19.5572 C   0  0  0  0  0  0  0  0  0  0  0  0
    1.8944  -10.6043   18.5873 C   0  0  0  0  0  0  0  0  0  0  0  0
    2.5877   -9.9756   17.9546 C   0  0  0  0  0  0  0  0  0  0  0  0
    4.2181   -8.3601   16.9689 C   0  0  0  0  0  0  0  0  0  0  0  0
    0.1784  -10.6683   17.0798 C   0  0  0  0  0  0  0  0  0  0  0  0
   11.2407   -4.1664   25.0733 N   0  0  0  0  0  0  0  0  0  0  0  0
    7.1261   -6.8242   17.7397 C   0  0  0  0  0  0  0  0  0  0  0  0
    4.0932   -8.3220   16.8538 N   0  0  0  0  0  0  0  0  0  0  0  0
    8.6933   -7.8752   16.2699 C   0  0  0  0  0  0  0  0  0  0  0  0
   10.6116   -4.3932   18.6861 C   0  0  0  0  0  0  0  0  0  0  0  0
    0.5678  -11.6475   20.7347 C   0  0  0  0  0  0  0  0  0  0  0  0
    9.8933   -5.0829   17.1206 N   0  0  0  0  0  0  0  0  0  0  0  0
   -0.1202  -11.6103   19.2863 O   0  0  0  0  0  0  0  0  0  0  0  0
    2.4845   -9.3064   17.0063 C   0  0  0  0  0  0  0  0  0  0  0  0
    4.4834   -7.5148   17.5053 C   0  0  0  0  0  0  0  0  0  0  0  0
    1.9495   -9.1321   15.9283 C   0  0  0  0  0  0  0  0  0  0  0  0
   10.8962   -3.7120   22.7092 C   0  0  0  0  0  0  0  0  0  0  0  0
    8.4511   -6.9739   17.3800 C   0  0  0  0  0  0  0  0  0  0  0  0
    7.5838   -8.8836   15.8271 C   0  0  0  0  0  0  0  0  0  0  0  0
   11.2120   -3.0398   20.4741 N   0  0  0  0  0  0  0  0  0  0  0  0
    9.9891   -2.2854   24.4454 C   0  0  0  0  0  0  0  0  0  0  0  0
    0.5931  -10.0072   16.1121 C   0  0  0  0  0  0  0  0  0  0  0  0
   10.3450   -4.0499   16.9383 C   0  0  0  0  0  0  0  0  0  0  0  0
   10.2245   -2.5455   23.1056 C   0  0  0  0  0  0  0  0  0  0  0  0
    0.5783  -10.9739   18.3649 C   0  0  0  0  0  0  0  0  0  0  0  0
   10.8909   -5.3364   20.8797 C   0  0  0  0  0  0  0  0  0  0  0  0
    6.3323   -7.6774   17.1547 C   0  0  0  0  0  0  0  0  0  0  0  0
   11.3570   -4.5275   23.7652 C   0  0  0  0  0  0  0  0  0  0  0  0
   11.0407   -3.2174   19.1809 C   0  0  0  0  0  0  0  0  0  0  0  0
   11.0082   -4.0193   21.3672 C   0  0  0  0  0  0  0  0  0  0  0  0
   10.0286   -6.9054   19.1116 O   0  0  0  0  0  0  0  0  0  0  0  0
    9.4126   -6.4317   17.9809 C   0  0  0  0  0  0  0  0  0  0  0  0
  1 21  4  0
  1 29  4  0
  2  8  4  0
  2 23  4  0
  3 12  4  0
  3 28  4  0
  3 33  4  0
  4  5  4  0
  4 27  4  0
  5 16  4  0
  6 10  4  0
  6 17  4  0
  7 24  4  0
  7 27  4  0
  8 30  4  0
  9 20  4  0
  9 29  4  0
 11 20  4  0
 11 21  4  0
 12 25  4  0
 12 31  4  0
 13 15  1  0
 14 25  4  0
 14 34  4  0
 15 27  1  0
 16 18  4  0
 18 24  4  0
 19 26  4  0
 19 30  4  0
 19 32  1  0
 20 34  1  0
 22 31  4  0
 22 32  4  0
 23 26  4  0
 28 32  4  0
 33 34  4  0
M  END
$$$$

 Created by Python create_sdf_string function

 34107  0  0  0  0  0  0  0  0999 V2000
    7.5435   -9.2390   17.4605 N   0  0  0  0  0  0  0  0  0  0  0  0
   10.4555   -3.3000   25.5456 N   0  0  0  0  0  0  0  0  0  0  0  0
   10.2800   -5.5094   19.7249 C   0  0  0  0  0  0  0  0  0  0  0  0
    1.0091  -10.3578   18.0938 C   0  0  0  0  0  0  0  0  0  0  0  0
    2.6979   -9.8151   17.9887 C   0  0  0  0  0  0  0  0  0  0  0  0
    4.0823   -8.5565   16.9365 C   0  0  0  0  0  0  0  0  0  0  0  0
   -0.2122  -10.3618   16.7619 C   0  0  0  0  0  0  0  0  0  0  0  0
    7.1937   -6.9146   16.6947 C   0  0  0  0  0  0  0  0  0  0  0  0
    4.9777   -8.0967   17.2684 N   0  0  0  0  0  0  0  0  0  0  0  0
    8.2652   -8.4306   16.5749 C   0  0  0  0  0  0  0  0  0  0  0  0
   12.1876   -4.7412   19.9918 C   0  0  0  0  0  0  0  0  0  0  0  0
    0.7318  -12.2876   19.9992 Cl  0  0  0  0  0  0  0  0  0  0  0  0
    9.6753   -5.2475   17.4677 N   0  0  0  0  0  0  0  0  0  0  0  0
    0.3373  -11.0934   18.5772 Cl  0  0  0  0  0  0  0  0  0  0  0  0
    2.7590   -8.4650   16.2284 C   0  0  0  0  0  0  0  0  0  0  0  0
    5.6033   -7.6813   17.4212 C   0  0  0  0  0  0  0  0  0  0  0  0
    1.8144   -9.3517   16.0464 C   0  0  0  0  0  0  0  0  0  0  0  0
   10.7641   -3.5991   22.9320 C   0  0  0  0  0  0  0  0  0  0  0  0
    8.2277   -7.0134   17.4795 P   0  0  0  0  0  0  0  0  0  0  0  0
    8.1099   -8.6352   14.6299 C   0  0  0  0  0  0  0  0  0  0  0  0
   11.5672   -2.9950   20.4408 N   0  0  0  0  0  0  0  0  0  0  0  0
   10.2481   -2.4097   24.8024 C   0  0  0  0  0  0  0  0  0  0  0  0
    1.0709  -10.6487   15.6414 C   0  0  0  0  0  0  0  0  0  0  0  0
    9.9263   -4.1927   17.4164 C   0  0  0  0  0  0  0  0  0  0  0  0
   10.7102   -2.3331   23.5955 C   0  0  0  0  0  0  0  0  0  0  0  0
    0.3706  -10.6936   18.6625 C   0  0  0  0  0  0  0  0  0  0  0  0
   11.0034   -5.6360   21.0634 C   0  0  0  0  0  0  0  0  0  0  0  0
    6.3497   -7.8635   17.3614 C   0  0  0  0  0  0  0  0  0  0  0  0
   11.1469   -4.3556   23.9613 C   0  0  0  0  0  0  0  0  0  0  0  0
   10.5288   -3.1931   19.6604 C   0  0  0  0  0  0  0  0  0  0  0  0
   11.2634   -3.5264   20.7357 C   0  0  0  0  0  0  0  0  0  0  0  0
    9.2980   -5.8165   18.5991 C   0  0  0  0  0  0  0  0  0  0  0  0
   11.5298   -4.1345   25.3963 He  0  0  0  0  0  0  0  0  0  0  0  0
   10.5670   -7.3050   18.3422 He  0  0  0  0  0  0  0  0  0  0  0  0
  1  6  3  0
  1  7  1  0
  1 14  3  0
  1 16  4  0
  1 20  2  0
  1 21  1  0
  1 22  2  0
  1 24  4  0
  1 27  4  0
  1 28  4  0
  2  5  2  0
  2 13  2  0
  2 16  4  0
  2 22  4  0
  2 29  1  0
  3 12  2  0
  3 14  3  0
  3 27  4  0
  3 32  2  0
  4  5  4  0
  4  7  2  0
  4 14  4  0
  4 17  3  0
  4 26  4  0
  4 27  3  0
  4 30  3  0
  4 32  2  0
  5 10  1  0
  5 16  2  0
  5 20  2  0
  5 24  1  0
  5 28  4  0
  6  9  4  0
  7  8  3  0
  7  9  1  0
  7 10  1  0
  7 16  4  0
  7 23  4  0
  7 26  4  0
  7 28  1  0
  7 29  2  0
  8  9  4  0
  8 10  3  0
  8 18  2  0
  8 19  4  0
  8 26  3  0
  8 28  4  0
  9 12  4  0
  9 14  4  0
  9 15  2  0
  9 17  3  0
  9 19  2  0
  9 20  2  0
  9 22  4  0
  9 23  3  0
  9 25  2  0
  9 27  1  0
  9 30  1  0
 10 11  1  0
 10 16  2  0
 10 20  4  0
 10 21  2  0
 10 26  1  0
 11 15  2  0
 11 17  2  0
 11 28  1  0
 11 30  1  0
 11 32  2  0
 12 13  4  0
 12 17  1  0
 12 18  1  0
 12 19  2  0
 12 24  4  0
 13 16  2  0
 13 17  2  0
 13 19  4  0
 13 24  4  0
 13 25  1  0
 13 28  2  0
 13 30  3  0
 13 32  1  0
 14 19  1  0
 14 25  4  0
 15 16  4  0
 15 19  2  0
 15 23  1  0
 15 31  4  0
 16 26  2  0
 16 27  1  0
 17 32  4  0
 18 25  4  0
 18 29  4  0
 18 31  1  0
 19 28  2  0
 19 32  1  0
 20 22  1  0
 20 25  1  0
 21 30  4  0
 21 31  4  0
 22 25  4  0
 23 28  1  0
 23 31  3  0
 24 29  2  0
 26 32  2  0
 27 31  4  0
 28 31  2  0
 28 32  4  0
M  END
$$$$

 Created by Python create_sdf_string function

 34 36  0  0  0  0  0  0  0  0999 V2000
    6.9270   -9.0174   16.5006 N   0  0  0  0  0  0  0  0  0  0  0  0
   10.5583   -3.1860   25.7525 N   0  0  0  0  0  0  0  0  0  0  0  0
   10.6954   -5.7572   19.8280 C   0  0  0  0  0  0  0  0  0  0  0  0
    1.5175  -10.5913   18.2250 C   0  0  0  0  0  0  0  0  0  0  0  0
    2.5025  -10.0925   18.0915 C   0  0  0  0  0  0  0  0  0  0  0  0
    3.9314   -8.4033   16.9266 C   0  0  0  0  0  0  0  0  0  0  0  0
   -0.1452  -10.5768   16.7558 C   0  0  0  0  0  0  0  0  0  0  0  0
   11.0937   -4.3185   25.3378 C   0  0  0  0  0  0  0  0  0  0  0  0
    7.1945   -7.0405   17.3517 C   0  0  0  0  0  0  0  0  0  0  0  0
    4.6927   -8.0086   17.4561 N   0  0  0  0  0  0  0  0  0  0  0  0
    8.7380   -8.0494   16.0082 C   0  0  0  0  0  0  0  0  0  0  0  0
   10.7888   -4.4071   19.0794 C   0  0  0  0  0  0  0  0  0  0  0  0
    0.4884  -11.9595   20.0968 C   0  0  0  0  0  0  0  0  0  0  0  0
    9.4855   -5.0359   17.3199 N   0  0  0  0  0  0  0  0  0  0  0  0
    0.3258  -11.3540   19.1141 C   0  0  0  0  0  0  0  0  0  0  0  0
    2.9483   -8.9998   16.6516 C   0  0  0  0  0  0  0  0  0  0  0  0
    4.9702   -8.1944   17.3215 C   0  0  0  0  0  0  0  0  0  0  0  0
    1.7806   -9.3875   16.1652 C   0  0  0  0  0  0  0  0  0  0  0  0
   10.9869   -3.5947   23.0482 C   0  0  0  0  0  0  0  0  0  0  0  0
    8.5636   -7.0641   17.1880 C   0  0  0  0  0  0  0  0  0  0  0  0
    8.0716   -8.7351   15.5765 C   0  0  0  0  0  0  0  0  0  0  0  0
   11.2911   -2.9406   20.7705 N   0  0  0  0  0  0  0  0  0  0  0  0
   10.2268   -2.2277   24.8581 C   0  0  0  0  0  0  0  0  0  0  0  0
    0.6739   -9.9008   16.0007 C   0  0  0  0  0  0  0  0  0  0  0  0
   10.2007   -4.2796   17.7132 C   0  0  0  0  0  0  0  0  0  0  0  0
   10.4863   -2.3494   23.4748 C   0  0  0  0  0  0  0  0  0  0  0  0
    0.3472  -10.9795   18.0570 C   0  0  0  0  0  0  0  0  0  0  0  0
   11.0618   -5.2228   21.2998 C   0  0  0  0  0  0  0  0  0  0  0  0
    6.4887   -7.9096   17.0545 C   0  0  0  0  0  0  0  0  0  0  0  0
   11.3404   -4.5784   23.9787 C   0  0  0  0  0  0  0  0  0  0  0  0
   11.1552   -3.1941   19.5190 N   0  0  0  0  0  0  0  0  0  0  0  0
   11.1091   -3.9078   21.7040 C   0  0  0  0  0  0  0  0  0  0  0  0
   10.1947   -6.7639   18.8666 C   0  0  0  0  0  0  0  0  0  0  0  0
    9.4442   -6.3270   17.8234 C   0  0  0  0  0  0  0  0  0  0  0  0
  1 21  4  0
  1 29  4  0
  2  8  4  0
  2 23  4  0
  3 12  4  0
  3 28  4  0
  3 33  4  0
  4  5  4  0
  4 27  4  0
  6 10  4  0
  6 16  1  0
  7 24  4  0
  7 27  4  0
  8 30  4  0
  9 20  4  0
  9 29  4  0
 10 17  4  0
 11 20  4  0
 11 21  4  0
 12 25  4  0
 12 31  4  0
 13 15  1  0
 14 25  4  0
 14 34  4  0
 15 27  1  0
 16 18  4  0
 18 24  4  0
 19 26  4  0
 19 30  4  0
 19 32  1  0
 20 34  1  0
 22 31  4  0
 22 32  4  0
 23 26  4  0
 28 32  4  0
 33 34  4  0
M  END
$$$$

 Created by Python create_sdf_string function

 34 87  0  0  0  0  0  0  0  0999 V2000
    7.1478   -8.5557   15.6309 N   0  0  0  0  0  0  0  0  0  0  0  0
   10.5931   -3.3982   25.4598 N   0  0  0  0  0  0  0  0  0  0  0  0
   10.7218   -6.0844   19.7273 C   0  0  0  0  0  0  0  0  0  0  0  0
    1.7404  -10.6845   17.9407 C   0  0  0  0  0  0  0  0  0  0  0  0
    3.9666   -8.2683   16.9305 C   0  0  0  0  0  0  0  0  0  0  0  0
   -1.3382  -10.7522   16.6358 C   0  0  0  0  0  0  0  0  0  0  0  0
   10.6718   -4.4145   25.4370 C   0  0  0  0  0  0  0  0  0  0  0  0
    6.8458   -6.3031   16.9085 C   0  0  0  0  0  0  0  0  0  0  0  0
    8.0560   -7.9172   16.1383 C   0  0  0  0  0  0  0  0  0  0  0  0
    9.8430   -4.0315   18.6847 F   0  0  0  0  0  0  0  0  0  0  0  0
   -0.3600  -12.5961   20.2841 Se  0  0  0  0  0  0  0  0  0  0  0  0
    9.6770   -4.0561   17.8178 C   0  0  0  0  0  0  0  0  0  0  0  0
    0.3717  -11.6514   19.3665 C   0  0  0  0  0  0  0  0  0  0  0  0
    4.4386   -8.0541   17.3641 C   0  0  0  0  0  0  0  0  0  0  0  0
    1.8020   -9.7560   16.2549 C   0  0  0  0  0  0  0  0  0  0  0  0
   11.0186   -3.3215   22.8740 C   0  0  0  0  0  0  0  0  0  0  0  0
    8.6550   -7.1216   17.3673 C   0  0  0  0  0  0  0  0  0  0  0  0
    7.2421   -9.5571   14.6312 C   0  0  0  0  0  0  0  0  0  0  0  0
   11.3372   -3.1555   20.8606 N   0  0  0  0  0  0  0  0  0  0  0  0
    0.6904  -11.0152   15.1085 O   0  0  0  0  0  0  0  0  0  0  0  0
   10.2517   -4.3881   17.6438 C   0  0  0  0  0  0  0  0  0  0  0  0
   10.4376   -2.3851   23.1433 C   0  0  0  0  0  0  0  0  0  0  0  0
    0.6417  -11.0587   17.8300 C   0  0  0  0  0  0  0  0  0  0  0  0
   10.8763   -5.0723   21.6133 C   0  0  0  0  0  0  0  0  0  0  0  0
    6.7671   -7.4991   17.2400 C   0  0  0  0  0  0  0  0  0  0  0  0
   11.4392   -4.6405   23.9800 C   0  0  0  0  0  0  0  0  0  0  0  0
   11.3692   -2.9788   19.6144 N   0  0  0  0  0  0  0  0  0  0  0  0
   10.9684   -3.7293   21.6221 C   0  0  0  0  0  0  0  0  0  0  0  0
    8.9891   -6.5995   17.0907 C   0  0  0  0  0  0  0  0  0  0  0  0
    2.5748  -10.4749   18.3655 He  0  0  0  0  0  0  0  0  0  0  0  0
    5.4181   -7.8597   17.6810 He  0  0  0  0  0  0  0  0  0  0  0  0
    3.6700   -8.6379   16.0986 He  0  0  0  0  0  0  0  0  0  0  0  0
   10.2311   -2.1962   24.8884 He  0  0  0  0  0  0  0  0  0  0  0  0
   10.0452   -6.0192   18.9407 He  0  0  0  0  0  0  0  0  0  0  0  0
  1  2  4  0
  1  9  1  0
  1 25  3  0
  2  7  4  0
  2 10  4  0
  2 14  1  0
  2 22  4  0
  2 28  1  0
  3 10  4  0
  3 12  4  0
  3 13  3  0
  3 17  4  0
  3 24  3  0
  3 29  2  0
  4  8  4  0
  4 13  2  0
  4 20  2  0
  4 23  3  0
  4 24  2  0
  4 27  4  0
  5  9  1  0
  5 16  2  0
  5 18  2  0
  5 19  1  0
  6  7  4  0
  6 14  1  0
  6 20  3  0
  6 27  4  0
  7  8  2  0
  7 17  4  0
  7 20  3  0
  7 26  4  0
  8 13  2  0
  8 19  3  0
  8 25  2  0
  9 10  2  0
  9 11  1  0
  9 23  3  0
  9 26  2  0
 10 12  4  0
 10 21  4  0
 10 24  4  0
 10 25  3  0
 11 14  2  0
 11 15  1  0
 11 17  3  0
 11 21  3  0
 11 27  4  0
 12 13  2  0
 12 15  2  0
 12 21  4  0
 12 25  3  0
 12 27  1  0
 12 29  4  0
 13 17  3  0
 13 18  4  0
 13 20  2  0
 13 23  1  0
 13 25  4  0
 13 29  4  0
 14 15  2  0
 14 18  2  0
 14 19  1  0
 14 23  3  0
 14 25  4  0
 15 20  4  0
 15 29  4  0
 16 22  4  0
 16 26  4  0
 16 28  1  0
 16 29  2  0
 17 24  1  0
 17 27  3  0
 17 29  1  0
 18 19  3  0
 18 20  2  0
 18 27  3  0
 18 28  3  0
 19 20  4  0
 19 27  4  0
 19 28  4  0
 21 26  2  0
 22 23  2  0
 23 25  3  0
 24 27  4  0
 24 28  4  0
 26 29  3  0
M  END
$$$$

 Created by Python create_sdf_string function

 34 37  0  0  0  0  0  0  0  0999 V2000
    7.2423   -8.7339   15.7263 N   0  0  0  0  0  0  0  0  0  0  0  0
   10.3449   -3.1500   25.6741 N   0  0  0  0  0  0  0  0  0  0  0  0
   10.4650   -5.3655   19.6845 C   0  0  0  0  0  0  0  0  0  0  0  0
    1.7905  -10.4232   17.8121 C   0  0  0  0  0  0  0  0  0  0  0  0
    2.7439  -10.2531   18.2005 C   0  0  0  0  0  0  0  0  0  0  0  0
    3.6828   -9.0640   17.1469 C   0  0  0  0  0  0  0  0  0  0  0  0
   -0.2438  -11.1352   16.9130 C   0  0  0  0  0  0  0  0  0  0  0  0
   10.8930   -4.3464   25.3291 C   0  0  0  0  0  0  0  0  0  0  0  0
    6.9907   -6.8704   17.3753 C   0  0  0  0  0  0  0  0  0  0  0  0
    4.8978   -8.2362   17.4514 C   0  0  0  0  0  0  0  0  0  0  0  0
    8.4633   -8.0334   16.1950 C   0  0  0  0  0  0  0  0  0  0  0  0
   10.6111   -4.1319   18.8845 C   0  0  0  0  0  0  0  0  0  0  0  0
   -0.3415  -12.3315   19.7846 N   0  0  0  0  0  0  0  0  0  0  0  0
    9.5112   -5.0021   17.0397 C   0  0  0  0  0  0  0  0  0  0  0  0
    0.2545  -11.6581   19.0192 C   0  0  0  0  0  0  0  0  0  0  0  0
    3.0567   -8.8988   16.1932 N   0  0  0  0  0  0  0  0  0  0  0  0
    4.6122   -8.3735   17.3171 C   0  0  0  0  0  0  0  0  0  0  0  0
    1.6611   -9.7186   16.2940 C   0  0  0  0  0  0  0  0  0  0  0  0
   10.8905   -3.6429   23.0465 C   0  0  0  0  0  0  0  0  0  0  0  0
    8.3703   -7.0274   17.0884 C   0  0  0  0  0  0  0  0  0  0  0  0
    7.0624   -9.0766   15.4731 C   0  0  0  0  0  0  0  0  0  0  0  0
   11.2387   -2.9212   20.8039 N   0  0  0  0  0  0  0  0  0  0  0  0
   10.1218   -2.1901   24.8123 C   0  0  0  0  0  0  0  0  0  0  0  0
    0.4599  -10.2398   15.8591 N   0  0  0  0  0  0  0  0  0  0  0  0
   10.1983   -4.0808   17.5156 C   0  0  0  0  0  0  0  0  0  0  0  0
   10.4296   -2.3872   23.4993 C   0  0  0  0  0  0  0  0  0  0  0  0
    0.6237  -11.0450   17.9041 C   0  0  0  0  0  0  0  0  0  0  0  0
   10.7508   -5.1579   21.0507 C   0  0  0  0  0  0  0  0  0  0  0  0
    6.1934   -7.5436   17.1649 C   0  0  0  0  0  0  0  0  0  0  0  0
   11.1534   -4.6141   24.0041 C   0  0  0  0  0  0  0  0  0  0  0  0
   11.0893   -2.9577   19.4657 N   0  0  0  0  0  0  0  0  0  0  0  0
   10.9707   -3.9386   21.6827 C   0  0  0  0  0  0  0  0  0  0  0  0
    9.9086   -6.3511   18.9030 C   0  0  0  0  0  0  0  0  0  0  0  0
    9.2999   -6.1723   17.6347 C   0  0  0  0  0  0  0  0  0  0  0  0
  1 11  1  0
  1 21  1  0
  2  8  4  0
  2 23  4  0
  3 12  4  0
  3 28  4  0
  3 33  4  0
  4  5  4  0
  4 18  4  0
  4 27  4  0
  5  6  4  0
  6 16  4  0
  6 17  1  0
  7 24  4  0
  7 27  4  0
  8 30  4  0
  9 20  1  0
  9 29  1  0
 10 17  1  0
 11 20  1  0
 12 25  4  0
 12 31  4  0
 13 15  3  0
 14 25  4  0
 14 34  4  0
 15 27  1  0
 16 18  4  0
 18 24  4  0
 19 26  4  0
 19 30  4  0
 19 32  1  0
 20 34  1  0
 22 31  4  0
 22 32  4  0
 23 26  4  0
 28 32  4  0
 33 34  4  0
M  END
$$$$

 Created by Python create_sdf_string function

 34111  0  0  0  0  0  0  0  0999 V2000
    7.8055   -8.8835   15.6913 N   0  0  0  0  0  0  0  0  0  0  0  0
   10.2418   -3.6730   25.6924 N   0  0  0  0  0  0  0  0  0  0  0  0
   10.5189   -4.9384   19.8043 C   0  0  0  0  0  0  0  0  0  0  0  0
    1.7082  -10.9014   17.7943 C   0  0  0  0  0  0  0  0  0  0  0  0
    2.8106  -10.1235   18.1525 C   0  0  0  0  0  0  0  0  0  0  0  0
    3.8567   -8.9846   16.9856 C   0  0  0  0  0  0  0  0  0  0  0  0
   -0.1333  -12.0086   17.7481 C   0  0  0  0  0  0  0  0  0  0  0  0
   10.6114   -4.2372   25.4357 C   0  0  0  0  0  0  0  0  0  0  0  0
    5.0000   -8.1917   18.2701 C   0  0  0  0  0  0  0  0  0  0  0  0
    7.9851   -6.9775   16.7359 C   0  0  0  0  0  0  0  0  0  0  0  0
    0.2103  -12.2717   19.0022 O   0  0  0  0  0  0  0  0  0  0  0  0
    8.6535   -4.9799   16.9480 C   0  0  0  0  0  0  0  0  0  0  0  0
    0.2120  -11.9903   18.8008 C   0  0  0  0  0  0  0  0  0  0  0  0
    2.8950   -8.3749   16.3768 N   0  0  0  0  0  0  0  0  0  0  0  0
    4.4555   -7.8510   18.3012 C   0  0  0  0  0  0  0  0  0  0  0  0
    1.5027   -9.4022   16.5419 C   0  0  0  0  0  0  0  0  0  0  0  0
   10.9455   -3.6426   23.1764 C   0  0  0  0  0  0  0  0  0  0  0  0
    8.5468   -6.8186   16.9526 C   0  0  0  0  0  0  0  0  0  0  0  0
   10.9981   -3.0172   20.7273 N   0  0  0  0  0  0  0  0  0  0  0  0
    9.5425   -2.2439   24.7035 C   0  0  0  0  0  0  0  0  0  0  0  0
   -0.2650  -10.2147   15.7813 C   0  0  0  0  0  0  0  0  0  0  0  0
   10.0676   -4.2200   17.6478 C   0  0  0  0  0  0  0  0  0  0  0  0
   10.8086   -2.4883   23.4467 C   0  0  0  0  0  0  0  0  0  0  0  0
    0.3763  -10.9580   17.6281 C   0  0  0  0  0  0  0  0  0  0  0  0
   10.7400   -4.9774   21.0787 C   0  0  0  0  0  0  0  0  0  0  0  0
    5.8299   -7.9974   17.1264 C   0  0  0  0  0  0  0  0  0  0  0  0
   11.2899   -4.5400   24.1845 C   0  0  0  0  0  0  0  0  0  0  0  0
   10.6377   -3.3030   19.4823 N   0  0  0  0  0  0  0  0  0  0  0  0
   11.0850   -3.9440   21.6460 C   0  0  0  0  0  0  0  0  0  0  0  0
   10.0198   -5.3482   19.6503 C   0  0  0  0  0  0  0  0  0  0  0  0
    9.9015   -6.0428   17.9011 N   0  0  0  0  0  0  0  0  0  0  0  0
    6.5448   -6.0157   18.0772 He  0  0  0  0  0  0  0  0  0  0  0  0
   11.0968   -4.9189   19.5066 He  0  0  0  0  0  0  0  0  0  0  0  0
    8.4908   -8.6148   16.0304 He  0  0  0  0  0  0  0  0  0  0  0  0
  1 10  1  0
  1 23  2  0
  1 24  4  0
  1 26  3  0
  2  4  2  0
  2  7  1  0
  2  8  4  0
  2 10  4  0
  2 16  1  0
  2 20  1  0
  2 23  1  0
  2 25  2  0
  2 29  1  0
  2 30  1  0
  3  4  1  0
  3  8  1  0
  3 18  4  0
  3 24  3  0
  3 25  4  0
  3 30  4  0
  4  7  4  0
  4  9  3  0
  4 12  4  0
  4 13  4  0
  4 14  3  0
  4 22  3  0
  4 24  4  0
  4 29  4  0
  4 30  4  0
  5  6  4  0
  5  9  2  0
  5 10  1  0
  5 15  3  0
  5 21  1  0
  5 26  3  0
  6  7  4  0
  6 10  3  0
  6 11  3  0
  6 12  1  0
  6 15  1  0
  6 17  4  0
  7 10  4  0
  7 20  1  0
  7 21  4  0
  7 24  4  0
  7 29  4  0
  8 10  2  0
  8 12  1  0
  8 15  2  0
  8 19  3  0
  8 22  3  0
  8 27  4  0
  8 30  2  0
  9 12  3  0
  9 15  1  0
  9 22  1  0
  9 27  2  0
  9 31  2  0
 10 18  1  0
 10 19  4  0
 10 21  3  0
 10 23  1  0
 11 13  3  0
 11 17  1  0
 11 22  3  0
 11 28  1  0
 11 31  4  0
 12 16  1  0
 12 18  2  0
 12 23  3  0
 12 25  2  0
 12 27  1  0
 12 30  1  0
 12 31  4  0
 13 17  1  0
 13 21  2  0
 13 27  1  0
 13 29  2  0
 13 31  4  0
 14 15  4  0
 14 16  2  0
 14 17  3  0
 14 20  4  0
 14 26  1  0
 15 16  2  0
 15 17  4  0
 15 24  4  0
 15 31  1  0
 16 18  1  0
 16 21  4  0
 17 23  4  0
 17 27  4  0
 17 29  2  0
 17 31  2  0
 19 28  4  0
 19 29  4  0
 20 21  2  0
 20 23  4  0
 21 31  4  0
 23 25  2  0
 23 26  1  0
 23 27  3  0
 24 25  2  0
 24 31  1  0
 25 29  4  0
 25 31  3  0
 26 30  3  0
 27 31  4  0
 28 31  3  0
 29 31  2  0
 30 31  4  0
M  END
$$$$

 Created by Python create_sdf_string function

 34 39  0  0  0  0  0  0  0  0999 V2000
    7.2680   -8.4806   15.9321 N   0  0  0  0  0  0  0  0  0  0  0  0
   10.0043   -3.2527   25.7544 N   0  0  0  0  0  0  0  0  0  0  0  0
   10.4572   -5.2543   19.7102 C   0  0  0  0  0  0  0  0  0  0  0  0
    1.7381  -10.4920   17.7180 C   0  0  0  0  0  0  0  0  0  0  0  0
    2.8821  -10.1949   18.1504 C   0  0  0  0  0  0  0  0  0  0  0  0
    3.5797   -9.1581   17.3610 C   0  0  0  0  0  0  0  0  0  0  0  0
   -0.3601  -11.2900   17.0388 C   0  0  0  0  0  0  0  0  0  0  0  0
   10.7432   -4.3453   25.4410 C   0  0  0  0  0  0  0  0  0  0  0  0
    6.7574   -6.8909   17.7501 S   0  0  0  0  0  0  0  0  0  0  0  0
    5.3735   -8.7222   18.1070 C   0  0  0  0  0  0  0  0  0  0  0  0
    8.2345   -7.5806   16.3455 C   0  0  0  0  0  0  0  0  0  0  0  0
   10.6400   -4.1315   18.9954 C   0  0  0  0  0  0  0  0  0  0  0  0
    0.0878  -12.3892   19.0327 O   0  0  0  0  0  0  0  0  0  0  0  0
    9.4239   -4.9461   17.0187 C   0  0  0  0  0  0  0  0  0  0  0  0
    0.5237  -11.9379   18.8116 C   0  0  0  0  0  0  0  0  0  0  0  0
    2.8472   -8.7613   16.3476 N   0  0  0  0  0  0  0  0  0  0  0  0
    4.6759   -8.6113   17.4272 C   0  0  0  0  0  0  0  0  0  0  0  0
    1.4067   -9.7075   16.4290 C   0  0  0  0  0  0  0  0  0  0  0  0
   10.8424   -3.6033   23.1504 C   0  0  0  0  0  0  0  0  0  0  0  0
    8.2055   -6.8436   17.3857 C   0  0  0  0  0  0  0  0  0  0  0  0
    8.4094   -8.3789   15.9910 C   0  0  0  0  0  0  0  0  0  0  0  0
   11.1422   -2.9084   20.8524 N   0  0  0  0  0  0  0  0  0  0  0  0
    9.7865   -2.2642   24.8480 C   0  0  0  0  0  0  0  0  0  0  0  0
    0.0046  -10.3802   16.1589 C   0  0  0  0  0  0  0  0  0  0  0  0
   10.2721   -4.0644   17.5495 C   0  0  0  0  0  0  0  0  0  0  0  0
   10.2609   -2.3846   23.5644 C   0  0  0  0  0  0  0  0  0  0  0  0
    0.5831  -11.2996   17.8987 C   0  0  0  0  0  0  0  0  0  0  0  0
   10.7810   -5.0721   21.1644 C   0  0  0  0  0  0  0  0  0  0  0  0
    6.1273   -7.8932   17.0364 C   0  0  0  0  0  0  0  0  0  0  0  0
   11.1588   -4.5373   24.1350 C   0  0  0  0  0  0  0  0  0  0  0  0
   10.9998   -3.0519   19.4400 N   0  0  0  0  0  0  0  0  0  0  0  0
   10.9769   -3.8798   21.7729 C   0  0  0  0  0  0  0  0  0  0  0  0
    9.8215   -6.1722   19.1030 C   0  0  0  0  0  0  0  0  0  0  0  0
    9.1681   -6.1272   17.7944 N   0  0  0  0  0  0  0  0  0  0  0  0
  1 11  1  0
  1 21  1  0
  1 29  1  0
  2  8  4  0
  2 23  4  0
  3 12  4  0
  3 28  4  0
  3 33  4  0
  4  5  4  0
  4 18  4  0
  4 27  4  0
  5  6  4  0
  6 16  4  0
  6 17  1  0
  7 24  4  0
  7 27  4  0
  8 30  4  0
  9 20  1  0
  9 29  1  0
 10 17  1  0
 11 20  1  0
 11 21  1  0
 12 25  4  0
 12 31  4  0
 13 15  4  0
 14 25  4  0
 14 34  4  0
 15 27  4  0
 16 18  4  0
 18 24  4  0
 19 26  4  0
 19 30  4  0
 19 32  1  0
 20 34  1  0
 22 31  4  0
 22 32  4  0
 23 26  4  0
 28 32  4  0
 33 34  4  0
M  END
$$$$

 Created by Python create_sdf_string function

 34 73  0  0  0  0  0  0  0  0999 V2000
    6.3274   -9.0966   16.5640 N   0  0  0  0  0  0  0  0  0  0  0  0
   10.3367   -3.4091   25.9492 N   0  0  0  0  0  0  0  0  0  0  0  0
   10.8270   -5.1053   19.6557 P   0  0  0  0  0  0  0  0  0  0  0  0
    1.4444  -11.8545   17.5166 C   0  0  0  0  0  0  0  0  0  0  0  0
    2.8822  -10.5741   17.8172 C   0  0  0  0  0  0  0  0  0  0  0  0
    3.0558   -9.4561   17.6987 C   0  0  0  0  0  0  0  0  0  0  0  0
    6.1056   -7.3411   17.1494 S   0  0  0  0  0  0  0  0  0  0  0  0
    4.9635   -8.5057   18.3226 C   0  0  0  0  0  0  0  0  0  0  0  0
    8.6098   -8.8481   15.7721 C   0  0  0  0  0  0  0  0  0  0  0  0
    8.8930   -5.4812   16.7669 C   0  0  0  0  0  0  0  0  0  0  0  0
    0.5809  -10.7563   18.9196 C   0  0  0  0  0  0  0  0  0  0  0  0
    2.6261   -8.0238   15.9118 N   0  0  0  0  0  0  0  0  0  0  0  0
    5.0404   -9.3326   17.5173 O   0  0  0  0  0  0  0  0  0  0  0  0
    1.2955   -9.6961   16.2142 C   0  0  0  0  0  0  0  0  0  0  0  0
   10.5759   -3.4686   23.1243 C   0  0  0  0  0  0  0  0  0  0  0  0
    8.2804   -6.6174   17.4109 C   0  0  0  0  0  0  0  0  0  0  0  0
    8.2185   -8.3776   15.4705 Cl  0  0  0  0  0  0  0  0  0  0  0  0
   11.2488   -2.9598   20.7528 N   0  0  0  0  0  0  0  0  0  0  0  0
   10.6430   -3.7197   17.6257 C   0  0  0  0  0  0  0  0  0  0  0  0
   10.4293   -1.9969   23.7917 C   0  0  0  0  0  0  0  0  0  0  0  0
   10.9164   -5.2199   21.1590 C   0  0  0  0  0  0  0  0  0  0  0  0
    6.3036   -7.7621   17.4864 C   0  0  0  0  0  0  0  0  0  0  0  0
   11.7932   -4.4184   24.1676 C   0  0  0  0  0  0  0  0  0  0  0  0
   11.0664   -2.9519   19.3844 C   0  0  0  0  0  0  0  0  0  0  0  0
    9.5315   -5.5962   19.1150 C   0  0  0  0  0  0  0  0  0  0  0  0
    9.8222   -5.0290   17.5444 P   0  0  0  0  0  0  0  0  0  0  0  0
    0.0103  -11.9920   17.0318 He  0  0  0  0  0  0  0  0  0  0  0  0
   11.0979   -4.5289   25.2193 He  0  0  0  0  0  0  0  0  0  0  0  0
   11.1656   -4.2698   19.1018 He  0  0  0  0  0  0  0  0  0  0  0  0
    1.1040  -12.2397   18.2529 He  0  0  0  0  0  0  0  0  0  0  0  0
   10.1569   -2.0961   24.7987 He  0  0  0  0  0  0  0  0  0  0  0  0
   -0.4004  -11.0254   15.8996 He  0  0  0  0  0  0  0  0  0  0  0  0
    0.4637  -11.3804   18.0099 He  0  0  0  0  0  0  0  0  0  0  0  0
   11.0171   -3.8009   21.5511 He  0  0  0  0  0  0  0  0  0  0  0  0
  1  2  4  0
  1  6  3  0
  1  8  3  0
  1 14  3  0
  1 16  1  0
  1 17  2  0
  1 19  2  0
  2  5  1  0
  2  8  3  0
  2 10  4  0
  2 17  4  0
  3  4  1  0
  3  9  3  0
  3 21  4  0
  4  5  4  0
  4  6  3  0
  4  8  2  0
  4  9  3  0
  4 13  3  0
  4 21  1  0
  4 22  1  0
  5  7  3  0
  5 15  1  0
  6  7  4  0
  6 11  1  0
  6 12  4  0
  6 13  4  0
  6 17  4  0
  6 19  2  0
  7 13  1  0
  7 16  1  0
  7 23  4  0
  7 25  3  0
  8 11  1  0
  8 13  4  0
  8 16  1  0
  8 18  1  0
  8 20  1  0
  8 23  1  0
  8 26  4  0
  9 11  2  0
  9 13  3  0
  9 14  2  0
  9 17  1  0
  9 22  4  0
 10 15  4  0
 10 19  4  0
 10 23  3  0
 10 26  4  0
 11 12  4  0
 11 15  4  0
 11 17  4  0
 11 20  3  0
 11 23  3  0
 11 25  2  0
 12 13  4  0
 12 14  4  0
 12 15  1  0
 12 16  2  0
 12 25  3  0
 13 14  2  0
 13 25  3  0
 14 15  1  0
 15 17  3  0
 15 20  4  0
 15 23  4  0
 15 26  3  0
 16 24  3  0
 16 26  1  0
 17 23  2  0
 21 23  1  0
 23 25  4  0
 23 26  3  0
M  END
$$$$

 Created by Python create_sdf_string function

 34 36  0  0  0  0  0  0  0  0999 V2000
    6.8415   -9.0429   16.2079 N   0  0  0  0  0  0  0  0  0  0  0  0
   10.3631   -3.1945   25.8288 N   0  0  0  0  0  0  0  0  0  0  0  0
   10.4841   -4.8395   19.5230 C   0  0  0  0  0  0  0  0  0  0  0  0
    1.7260  -10.6179   17.5921 C   0  0  0  0  0  0  0  0  0  0  0  0
    2.8604  -10.5648   18.1864 C   0  0  0  0  0  0  0  0  0  0  0  0
    3.4296   -9.6637   17.4902 C   0  0  0  0  0  0  0  0  0  0  0  0
   -0.5179  -11.5503   16.8703 N   0  0  0  0  0  0  0  0  0  0  0  0
   11.0154   -4.3257   25.4229 C   0  0  0  0  0  0  0  0  0  0  0  0
    6.8796   -7.0968   17.7278 C   0  0  0  0  0  0  0  0  0  0  0  0
    5.4089   -8.5364   17.5046 C   0  0  0  0  0  0  0  0  0  0  0  0
    8.4050   -8.2085   16.0934 C   0  0  0  0  0  0  0  0  0  0  0  0
   10.7257   -3.9978   18.8524 C   0  0  0  0  0  0  0  0  0  0  0  0
    1.1793  -12.1698   18.9671 C   0  0  0  0  0  0  0  0  0  0  0  0
    9.6451   -4.8385   16.8391 C   0  0  0  0  0  0  0  0  0  0  0  0
    0.2812  -11.7156   19.1136 C   0  0  0  0  0  0  0  0  0  0  0  0
    2.7142   -9.0684   16.4432 N   0  0  0  0  0  0  0  0  0  0  0  0
    4.7450   -9.2211   17.7183 N   0  0  0  0  0  0  0  0  0  0  0  0
    1.3847   -9.8742   16.4033 C   0  0  0  0  0  0  0  0  0  0  0  0
   10.9076   -3.5776   23.1421 C   0  0  0  0  0  0  0  0  0  0  0  0
    8.2231   -6.8076   17.0521 C   0  0  0  0  0  0  0  0  0  0  0  0
    8.1140   -8.5240   15.6690 C   0  0  0  0  0  0  0  0  0  0  0  0
   11.2186   -2.8323   20.8847 N   0  0  0  0  0  0  0  0  0  0  0  0
   10.0048   -2.2378   24.9592 C   0  0  0  0  0  0  0  0  0  0  0  0
   -0.1950  -10.7424   15.9979 C   0  0  0  0  0  0  0  0  0  0  0  0
   10.5049   -3.9151   17.3774 C   0  0  0  0  0  0  0  0  0  0  0  0
   10.3167   -2.3936   23.6256 C   0  0  0  0  0  0  0  0  0  0  0  0
    0.0575  -11.7019   17.9851 C   0  0  0  0  0  0  0  0  0  0  0  0
   10.6859   -4.9798   21.1268 C   0  0  0  0  0  0  0  0  0  0  0  0
    6.2981   -7.6742   17.5764 C   0  0  0  0  0  0  0  0  0  0  0  0
   11.2941   -4.5524   24.0801 C   0  0  0  0  0  0  0  0  0  0  0  0
   11.1314   -2.9707   19.4653 N   0  0  0  0  0  0  0  0  0  0  0  0
   10.9409   -3.8014   21.7308 C   0  0  0  0  0  0  0  0  0  0  0  0
    9.7556   -5.9691   18.9100 C   0  0  0  0  0  0  0  0  0  0  0  0
    9.2706   -5.8267   17.5647 C   0  0  0  0  0  0  0  0  0  0  0  0
  1 21  4  0
  2  8  4  0
  2 23  4  0
  3 12  4  0
  3 28  4  0
  3 33  4  0
  4  5  4  0
  4 18  4  0
  5  6  4  0
  6 16  4  0
  6 17  4  0
  7 24  4  0
  7 27  4  0
  8 30  4  0
  9 20  1  0
  9 29  4  0
 10 17  4  0
 10 29  1  0
 11 20  4  0
 11 21  1  0
 12 25  4  0
 12 31  4  0
 14 25  4  0
 14 34  4  0
 15 27  4  0
 16 18  4  0
 18 24  4  0
 19 26  4  0
 19 30  4  0
 19 32  1  0
 20 34  1  0
 22 31  4  0
 22 32  4  0
 23 26  4  0
 28 32  4  0
 33 34  4  0
M  END
$$$$

 Created by Python create_sdf_string function

 34 80  0  0  0  0  0  0  0  0999 V2000
    5.8879   -9.1613   15.3249 N   0  0  0  0  0  0  0  0  0  0  0  0
   10.6520   -3.0659   26.0456 N   0  0  0  0  0  0  0  0  0  0  0  0
   10.3432   -4.8419   19.3405 C   0  0  0  0  0  0  0  0  0  0  0  0
    2.7294  -10.8370   18.2952 C   0  0  0  0  0  0  0  0  0  0  0  0
    3.5661   -9.9294   17.2274 C   0  0  0  0  0  0  0  0  0  0  0  0
   -0.2728  -10.7931   17.0864 P   0  0  0  0  0  0  0  0  0  0  0  0
   10.8676   -4.0908   25.2597 C   0  0  0  0  0  0  0  0  0  0  0  0
    6.6722   -7.2893   17.5982 C   0  0  0  0  0  0  0  0  0  0  0  0
    5.5505   -7.1896   17.2705 C   0  0  0  0  0  0  0  0  0  0  0  0
   10.8899   -4.1118   18.4867 C   0  0  0  0  0  0  0  0  0  0  0  0
    0.9428  -12.1031   18.5448 Br  0  0  0  0  0  0  0  0  0  0  0  0
    1.0777   -9.6571   16.1497 C   0  0  0  0  0  0  0  0  0  0  0  0
   10.6213   -3.2712   23.2047 C   0  0  0  0  0  0  0  0  0  0  0  0
    8.1929   -6.7942   17.5309 C   0  0  0  0  0  0  0  0  0  0  0  0
    8.1999   -8.8633   16.6418 C   0  0  0  0  0  0  0  0  0  0  0  0
   11.3419   -3.0953   20.7898 N   0  0  0  0  0  0  0  0  0  0  0  0
    9.8637   -1.9930   24.8009 C   0  0  0  0  0  0  0  0  0  0  0  0
   -0.4054  -10.8600   15.4082 C   0  0  0  0  0  0  0  0  0  0  0  0
   10.2105   -4.2091   17.5983 C   0  0  0  0  0  0  0  0  0  0  0  0
   10.6454   -2.3693   23.6263 C   0  0  0  0  0  0  0  0  0  0  0  0
    0.2233  -11.7674   17.9109 Cl  0  0  0  0  0  0  0  0  0  0  0  0
   10.9527   -5.2477   21.0946 C   0  0  0  0  0  0  0  0  0  0  0  0
   10.8479   -4.5001   24.2165 C   0  0  0  0  0  0  0  0  0  0  0  0
   11.0501   -2.9476   19.6572 N   0  0  0  0  0  0  0  0  0  0  0  0
   10.7408   -3.5963   21.5708 C   0  0  0  0  0  0  0  0  0  0  0  0
    9.6726   -5.8593   20.0132 C   0  0  0  0  0  0  0  0  0  0  0  0
    9.9086   -5.6833   18.1661 C   0  0  0  0  0  0  0  0  0  0  0  0
    1.9262  -10.1811   17.3768 He  0  0  0  0  0  0  0  0  0  0  0  0
    8.9730   -7.2070   15.9755 He  0  0  0  0  0  0  0  0  0  0  0  0
   10.6037   -4.5388   17.4213 He  0  0  0  0  0  0  0  0  0  0  0  0
    0.8221  -12.0492   19.0945 He  0  0  0  0  0  0  0  0  0  0  0  0
    2.4302   -9.1984   16.6352 He  0  0  0  0  0  0  0  0  0  0  0  0
    4.0017   -9.7171   18.2891 He  0  0  0  0  0  0  0  0  0  0  0  0
    6.3305   -7.6039   17.4813 He  0  0  0  0  0  0  0  0  0  0  0  0
  1  8  3  0
  1 11  3  0
  1 17  1  0
  1 21  2  0
  2  6  4  0
  2  7  4  0
  2 14  1  0
  2 15  1  0
  2 17  4  0
  3  6  1  0
  3 10  4  0
  3 13  3  0
  3 22  4  0
  3 26  4  0
  4  5  4  0
  4 18  1  0
  4 20  1  0
  4 26  2  0
  5 11  2  0
  5 26  3  0
  6  8  4  0
  6 13  1  0
  6 18  4  0
  6 21  3  0
  6 26  3  0
  7 10  3  0
  7 17  4  0
  7 18  3  0
  7 23  4  0
  8 10  3  0
  8 14  1  0
  8 18  2  0
  8 22  2  0
  8 26  4  0
  9 13  4  0
  9 22  4  0
  9 23  1  0
  9 24  4  0
  9 25  1  0
  9 26  4  0
 10 19  4  0
 10 24  4  0
 10 26  3  0
 10 27  4  0
 11 16  4  0
 11 18  3  0
 11 20  4  0
 11 22  3  0
 11 24  3  0
 11 25  2  0
 11 26  4  0
 12 14  4  0
 12 15  3  0
 12 18  4  0
 12 25  3  0
 13 18  1  0
 13 20  4  0
 13 23  4  0
 13 25  4  0
 14 23  2  0
 14 27  1  0
 15 16  4  0
 15 19  4  0
 15 22  3  0
 15 24  1  0
 16 24  4  0
 16 25  2  0
 16 27  1  0
 17 20  4  0
 17 25  4  0
 18 20  2  0
 18 26  2  0
 18 27  1  0
 19 24  3  0
 19 26  1  0
 22 25  4  0
 23 24  4  0
 23 26  2  0
 24 27  2  0
 26 27  4  0
M  END
$$$$

 Created by Python create_sdf_string function

 34 40  0  0  0  0  0  0  0  0999 V2000
    6.0764   -8.9496   15.8617 C   0  0  0  0  0  0  0  0  0  0  0  0
   10.4102   -2.9474   25.8694 N   0  0  0  0  0  0  0  0  0  0  0  0
   10.4280   -4.9573   19.6978 C   0  0  0  0  0  0  0  0  0  0  0  0
    1.9418  -10.1503   17.1440 C   0  0  0  0  0  0  0  0  0  0  0  0
    2.5473  -10.6650   18.1455 C   0  0  0  0  0  0  0  0  0  0  0  0
    3.6670   -9.6068   17.2690 C   0  0  0  0  0  0  0  0  0  0  0  0
   -0.5132  -11.3543   16.9088 N   0  0  0  0  0  0  0  0  0  0  0  0
   10.8302   -4.1735   25.4341 C   0  0  0  0  0  0  0  0  0  0  0  0
    7.1890   -6.9848   17.9529 C   0  0  0  0  0  0  0  0  0  0  0  0
    5.5138   -8.3033   17.0486 C   0  0  0  0  0  0  0  0  0  0  0  0
    8.6058   -7.5817   16.2246 C   0  0  0  0  0  0  0  0  0  0  0  0
   10.7735   -3.8806   18.9727 C   0  0  0  0  0  0  0  0  0  0  0  0
    0.6010  -12.0049   18.9857 C   0  0  0  0  0  0  0  0  0  0  0  0
    9.8656   -4.8708   17.0739 C   0  0  0  0  0  0  0  0  0  0  0  0
    1.1061  -11.8829   18.6879 C   0  0  0  0  0  0  0  0  0  0  0  0
    2.7942   -9.2074   16.4068 N   0  0  0  0  0  0  0  0  0  0  0  0
    4.5963   -9.2422   17.7208 C   0  0  0  0  0  0  0  0  0  0  0  0
    1.1483   -9.9088   16.2909 C   0  0  0  0  0  0  0  0  0  0  0  0
   10.7813   -3.4658   23.1492 C   0  0  0  0  0  0  0  0  0  0  0  0
    8.4494   -6.8754   17.3292 C   0  0  0  0  0  0  0  0  0  0  0  0
    7.6984   -8.5924   15.8469 C   0  0  0  0  0  0  0  0  0  0  0  0
   11.2859   -2.6910   20.8614 N   0  0  0  0  0  0  0  0  0  0  0  0
   10.1604   -1.9943   24.9647 C   0  0  0  0  0  0  0  0  0  0  0  0
   -0.1857  -10.3811   15.9998 C   0  0  0  0  0  0  0  0  0  0  0  0
   10.6293   -3.9143   17.5978 C   0  0  0  0  0  0  0  0  0  0  0  0
   10.3534   -2.2214   23.6084 C   0  0  0  0  0  0  0  0  0  0  0  0
    0.1487  -11.6341   17.8770 C   0  0  0  0  0  0  0  0  0  0  0  0
   10.6088   -4.9037   21.1325 C   0  0  0  0  0  0  0  0  0  0  0  0
    6.3392   -7.6753   17.6221 C   0  0  0  0  0  0  0  0  0  0  0  0
   11.0043   -4.4470   24.0998 C   0  0  0  0  0  0  0  0  0  0  0  0
   11.2380   -2.7961   19.5252 N   0  0  0  0  0  0  0  0  0  0  0  0
   10.9320   -3.7007   21.7399 C   0  0  0  0  0  0  0  0  0  0  0  0
    9.8282   -6.0181   19.0937 C   0  0  0  0  0  0  0  0  0  0  0  0
    9.4207   -5.9400   17.8422 C   0  0  0  0  0  0  0  0  0  0  0  0
  1 10  1  0
  1 21  1  0
  2  8  4  0
  2 23  4  0
  3 12  4  0
  3 28  4  0
  3 33  4  0
  4  5  4  0
  4 16  4  0
  4 18  4  0
  5  6  4  0
  5 15  4  0
  6 16  4  0
  6 17  1  0
  7 24  4  0
  7 27  4  0
  8 30  4  0
  9 20  1  0
  9 29  1  0
 10 17  1  0
 10 29  1  0
 11 20  1  0
 11 21  1  0
 12 25  4  0
 12 31  4  0
 13 15  4  0
 13 27  4  0
 14 25  4  0
 14 34  4  0
 15 27  4  0
 18 24  4  0
 19 26  4  0
 19 30  4  0
 19 32  1  0
 20 34  1  0
 22 31  4  0
 22 32  4  0
 23 26  4  0
 28 32  4  0
 33 34  4  0
M  END
$$$$

 Created by Python create_sdf_string function

 34 80  0  0  0  0  0  0  0  0999 V2000
    5.8606   -9.1068   15.9729 C   0  0  0  0  0  0  0  0  0  0  0  0
   10.3756   -2.9871   25.7260 N   0  0  0  0  0  0  0  0  0  0  0  0
    0.7721  -10.1934   17.8810 S   0  0  0  0  0  0  0  0  0  0  0  0
    2.6971  -10.6631   18.0285 C   0  0  0  0  0  0  0  0  0  0  0  0
    3.6770   -9.6738   17.4872 C   0  0  0  0  0  0  0  0  0  0  0  0
   -1.1784  -12.0791   17.2043 N   0  0  0  0  0  0  0  0  0  0  0  0
   11.0750   -3.9788   25.2062 C   0  0  0  0  0  0  0  0  0  0  0  0
    7.7986   -6.5904   17.1820 C   0  0  0  0  0  0  0  0  0  0  0  0
    8.7744   -7.4450   16.0851 C   0  0  0  0  0  0  0  0  0  0  0  0
    1.5855  -12.0088   18.3528 C   0  0  0  0  0  0  0  0  0  0  0  0
    9.4685   -5.6430   16.4630 P   0  0  0  0  0  0  0  0  0  0  0  0
    1.8447  -11.8691   19.2448 O   0  0  0  0  0  0  0  0  0  0  0  0
    5.0017   -9.8501   18.2658 P   0  0  0  0  0  0  0  0  0  0  0  0
    1.4876   -9.9184   15.9372 C   0  0  0  0  0  0  0  0  0  0  0  0
   10.7097   -3.6578   23.0383 Br  0  0  0  0  0  0  0  0  0  0  0  0
    8.5285   -6.8240   17.1978 C   0  0  0  0  0  0  0  0  0  0  0  0
   11.5414   -2.8000   21.0024 N   0  0  0  0  0  0  0  0  0  0  0  0
   10.2085   -2.0692   25.0068 C   0  0  0  0  0  0  0  0  0  0  0  0
   11.0000   -4.0707   17.6259 C   0  0  0  0  0  0  0  0  0  0  0  0
   10.2566   -2.0969   23.2195 C   0  0  0  0  0  0  0  0  0  0  0  0
    0.5364  -11.7370   18.1073 C   0  0  0  0  0  0  0  0  0  0  0  0
   10.5200   -4.5859   20.9160 C   0  0  0  0  0  0  0  0  0  0  0  0
    6.3759   -7.6065   17.8704 C   0  0  0  0  0  0  0  0  0  0  0  0
   10.6972   -4.2600   24.0434 C   0  0  0  0  0  0  0  0  0  0  0  0
   11.2479   -3.0266   19.6363 N   0  0  0  0  0  0  0  0  0  0  0  0
   11.2537   -3.6207   21.9792 C   0  0  0  0  0  0  0  0  0  0  0  0
    9.3681   -6.0808   19.0904 C   0  0  0  0  0  0  0  0  0  0  0  0
   10.5525   -4.9612   19.7317 He  0  0  0  0  0  0  0  0  0  0  0  0
    5.0867   -8.1766   16.7972 He  0  0  0  0  0  0  0  0  0  0  0  0
   10.6330   -3.6050   19.3135 He  0  0  0  0  0  0  0  0  0  0  0  0
    3.3878   -8.5485   16.3292 He  0  0  0  0  0  0  0  0  0  0  0  0
    7.8563   -8.0045   15.7032 He  0  0  0  0  0  0  0  0  0  0  0  0
    0.1934  -10.0921   15.6582 He  0  0  0  0  0  0  0  0  0  0  0  0
    9.1314   -6.7810   17.5401 He  0  0  0  0  0  0  0  0  0  0  0  0
  1  7  1  0
  1 11  1  0
  1 12  3  0
  1 14  1  0
  1 15  1  0
  1 16  1  0
  1 17  3  0
  1 18  2  0
  1 21  2  0
  1 22  3  0
  1 27  2  0
  2  3  1  0
  2  7  4  0
  2 10  2  0
  2 11  4  0
  2 18  2  0
  2 19  4  0
  2 22  4  0
  2 27  3  0
  3  6  1  0
  3 14  4  0
  3 19  1  0
  3 22  2  0
  4  5  4  0
  4 12  1  0
  4 17  3  0
  4 26  2  0
  5 13  1  0
  6 14  4  0
  6 16  1  0
  6 18  4  0
  6 21  2  0
  6 25  3  0
  7 24  4  0
  7 25  3  0
  8  9  2  0
  8 12  2  0
  8 15  3  0
  8 16  1  0
  8 19  3  0
  8 22  3  0
  8 23  3  0
  9 10  1  0
  9 16  1  0
  9 22  2  0
  9 23  3  0
  9 25  3  0
 10 12  3  0
 10 14  2  0
 10 15  3  0
 10 19  2  0
 10 22  1  0
 11 19  4  0
 11 22  2  0
 11 26  1  0
 12 14  2  0
 12 16  4  0
 12 18  3  0
 12 20  1  0
 12 21  4  0
 12 24  3  0
 13 16  4  0
 13 23  4  0
 13 25  1  0
 13 27  4  0
 14 20  4  0
 15 18  2  0
 15 20  4  0
 15 24  4  0
 15 26  1  0
 16 27  3  0
 17 25  4  0
 18 20  4  0
 18 22  4  0
 18 25  1  0
 18 26  3  0
 19 21  3  0
 19 27  2  0
 22 26  4  0
 24 27  1  0
M  END
$$$$

 Created by Python create_sdf_string function

 34 38  0  0  0  0  0  0  0  0999 V2000
    6.1422   -8.6937   15.8713 C   0  0  0  0  0  0  0  0  0  0  0  0
   10.3708   -2.9027   25.7675 N   0  0  0  0  0  0  0  0  0  0  0  0
   10.3334   -4.9973   19.6287 C   0  0  0  0  0  0  0  0  0  0  0  0
    1.6509  -10.3426   17.2051 C   0  0  0  0  0  0  0  0  0  0  0  0
    2.7425  -10.4948   17.9982 C   0  0  0  0  0  0  0  0  0  0  0  0
    3.6839   -9.7029   17.5741 C   0  0  0  0  0  0  0  0  0  0  0  0
   -0.6180  -11.6786   17.1040 N   0  0  0  0  0  0  0  0  0  0  0  0
   10.8335   -4.1232   25.3751 C   0  0  0  0  0  0  0  0  0  0  0  0
    7.1292   -6.8179   17.6348 C   0  0  0  0  0  0  0  0  0  0  0  0
    5.2839   -8.4514   16.7538 C   0  0  0  0  0  0  0  0  0  0  0  0
    8.5889   -7.5685   15.9549 C   0  0  0  0  0  0  0  0  0  0  0  0
   10.7954   -3.9464   18.8761 C   0  0  0  0  0  0  0  0  0  0  0  0
    1.4597  -11.6988   18.6348 C   0  0  0  0  0  0  0  0  0  0  0  0
    9.9274   -5.0375   16.8933 C   0  0  0  0  0  0  0  0  0  0  0  0
    2.1264  -11.7565   19.0793 C   0  0  0  0  0  0  0  0  0  0  0  0
    3.8142   -8.8135   16.5808 N   0  0  0  0  0  0  0  0  0  0  0  0
    4.7230   -9.8901   18.1990 O   0  0  0  0  0  0  0  0  0  0  0  0
    1.0629   -9.8915   16.4113 C   0  0  0  0  0  0  0  0  0  0  0  0
   10.7706   -3.4035   23.0725 C   0  0  0  0  0  0  0  0  0  0  0  0
    8.4802   -7.0210   17.1418 N   0  0  0  0  0  0  0  0  0  0  0  0
    7.5523   -8.4777   15.4983 C   0  0  0  0  0  0  0  0  0  0  0  0
   11.3662   -2.7610   20.7876 N   0  0  0  0  0  0  0  0  0  0  0  0
   10.0550   -1.9518   24.8458 C   0  0  0  0  0  0  0  0  0  0  0  0
   -0.1544  -10.5441   16.2753 C   0  0  0  0  0  0  0  0  0  0  0  0
   10.6085   -4.0302   17.4788 C   0  0  0  0  0  0  0  0  0  0  0  0
   10.2830   -2.1639   23.5093 C   0  0  0  0  0  0  0  0  0  0  0  0
    0.4441  -11.8736   18.0808 C   0  0  0  0  0  0  0  0  0  0  0  0
   10.4963   -4.8552   21.1097 C   0  0  0  0  0  0  0  0  0  0  0  0
    6.1174   -7.5906   17.6524 C   0  0  0  0  0  0  0  0  0  0  0  0
   11.0445   -4.3814   24.0401 C   0  0  0  0  0  0  0  0  0  0  0  0
   11.3266   -2.8799   19.4310 N   0  0  0  0  0  0  0  0  0  0  0  0
   10.9041   -3.6573   21.6778 C   0  0  0  0  0  0  0  0  0  0  0  0
    9.6684   -6.0643   18.9807 C   0  0  0  0  0  0  0  0  0  0  0  0
    9.3806   -6.0708   17.6534 C   0  0  0  0  0  0  0  0  0  0  0  0
  1 10  1  0
  1 21  1  0
  2  8  4  0
  2 23  4  0
  3 12  4  0
  3 28  4  0
  3 33  4  0
  4  5  4  0
  4 18  4  0
  5  6  4  0
  5 15  4  0
  6 16  4  0
  6 17  4  0
  7 24  4  0
  7 27  4  0
  8 30  4  0
  9 20  1  0
  9 29  1  0
 10 16  1  0
 10 29  1  0
 11 20  1  0
 11 21  1  0
 12 25  4  0
 12 31  4  0
 13 15  4  0
 13 27  4  0
 14 25  4  0
 14 34  4  0
 18 24  4  0
 19 26  4  0
 19 30  4  0
 19 32  1  0
 20 34  1  0
 22 31  4  0
 22 32  4  0
 23 26  4  0
 28 32  4  0
 33 34  4  0
M  END
$$$$

 Created by Python create_sdf_string function

 34 74  0  0  0  0  0  0  0  0999 V2000
    5.8264   -8.4733   16.7414 C   0  0  0  0  0  0  0  0  0  0  0  0
    2.0404   -8.8224   17.2405 C   0  0  0  0  0  0  0  0  0  0  0  0
    2.5199  -10.3551   18.1480 C   0  0  0  0  0  0  0  0  0  0  0  0
    3.9720   -9.5977   17.7168 C   0  0  0  0  0  0  0  0  0  0  0  0
   -0.9913  -11.6153   17.7427 N   0  0  0  0  0  0  0  0  0  0  0  0
   10.7772   -4.2642   25.2071 C   0  0  0  0  0  0  0  0  0  0  0  0
    7.1797   -6.0943   17.3137 C   0  0  0  0  0  0  0  0  0  0  0  0
    8.4654   -7.6583   15.6036 C   0  0  0  0  0  0  0  0  0  0  0  0
   11.2347   -3.8955   19.3244 C   0  0  0  0  0  0  0  0  0  0  0  0
    1.9034  -11.3346   18.4309 C   0  0  0  0  0  0  0  0  0  0  0  0
   10.4567   -4.9770   16.1791 O   0  0  0  0  0  0  0  0  0  0  0  0
    1.9174  -11.0238   19.7113 O   0  0  0  0  0  0  0  0  0  0  0  0
    3.6164   -8.8332   16.8535 N   0  0  0  0  0  0  0  0  0  0  0  0
    4.9098   -9.0061   17.7786 O   0  0  0  0  0  0  0  0  0  0  0  0
    0.8508   -9.9743   16.2198 C   0  0  0  0  0  0  0  0  0  0  0  0
    8.5129   -7.1769   17.1355 N   0  0  0  0  0  0  0  0  0  0  0  0
   11.4392   -2.4212   20.7495 N   0  0  0  0  0  0  0  0  0  0  0  0
   10.5342   -2.0251   24.5478 C   0  0  0  0  0  0  0  0  0  0  0  0
    0.2482  -10.4933   16.5226 P   0  0  0  0  0  0  0  0  0  0  0  0
   10.3375   -4.5388   17.3584 C   0  0  0  0  0  0  0  0  0  0  0  0
   10.4190   -1.9845   23.0834 C   0  0  0  0  0  0  0  0  0  0  0  0
    0.4694  -11.7111   18.1247 C   0  0  0  0  0  0  0  0  0  0  0  0
   10.3599   -4.8889   21.2767 C   0  0  0  0  0  0  0  0  0  0  0  0
    6.1305   -7.2001   17.6564 C   0  0  0  0  0  0  0  0  0  0  0  0
   10.8927   -4.1424   23.7469 C   0  0  0  0  0  0  0  0  0  0  0  0
   11.5380   -3.0302   19.5419 N   0  0  0  0  0  0  0  0  0  0  0  0
   11.1882   -3.6909   21.8093 C   0  0  0  0  0  0  0  0  0  0  0  0
    9.0178   -5.9095   18.8613 C   0  0  0  0  0  0  0  0  0  0  0  0
    9.4162   -6.6032   17.3776 F   0  0  0  0  0  0  0  0  0  0  0  0
   10.2404   -3.0385   25.8234 He  0  0  0  0  0  0  0  0  0  0  0  0
   10.4387   -4.9575   19.6212 He  0  0  0  0  0  0  0  0  0  0  0  0
    5.8717   -7.8238   16.1225 He  0  0  0  0  0  0  0  0  0  0  0  0
   11.0897   -3.1292   22.8023 He  0  0  0  0  0  0  0  0  0  0  0  0
    7.1459   -8.1004   16.2249 He  0  0  0  0  0  0  0  0  0  0  0  0
  1  7  4  0
  1 12  2  0
  1 24  3  0
  1 29  3  0
  2 13  2  0
  2 15  4  0
  2 22  1  0
  2 23  3  0
  2 26  1  0
  3  4  4  0
  3  7  4  0
  3 12  4  0
  3 13  2  0
  4 15  3  0
  5  8  3  0
  5 11  3  0
  5 12  2  0
  5 14  2  0
  5 18  1  0
  5 19  4  0
  5 22  4  0
  6  8  4  0
  6 25  4  0
  7  8  3  0
  7 16  1  0
  7 21  1  0
  7 27  1  0
  8  9  2  0
  8 10  4  0
  8 11  2  0
  8 13  1  0
  8 16  2  0
  8 29  1  0
  9 10  2  0
  9 23  2  0
  9 25  4  0
  9 26  4  0
 10 22  4  0
 11 12  4  0
 11 14  1  0
 11 18  4  0
 11 29  2  0
 12 13  4  0
 12 17  4  0
 12 19  1  0
 12 24  2  0
 12 25  2  0
 13 19  4  0
 13 20  3  0
 13 24  1  0
 13 28  1  0
 13 29  2  0
 14 21  3  0
 15 19  4  0
 15 25  1  0
 15 29  3  0
 16 19  1  0
 16 22  4  0
 16 27  1  0
 17 26  4  0
 17 27  4  0
 18 21  4  0
 18 29  1  0
 19 20  1  0
 21 25  2  0
 21 28  1  0
 21 29  3  0
 22 28  3  0
 23 25  2  0
 23 27  4  0
 23 28  4  0
 27 28  4  0
 27 29  4  0
 28 29  4  0
M  END
$$$$

 Created by Python create_sdf_string function

 34 38  0  0  0  0  0  0  0  0999 V2000
    6.0396   -8.4004   16.7593 C   0  0  0  0  0  0  0  0  0  0  0  0
   10.3482   -2.9013   25.6345 C   0  0  0  0  0  0  0  0  0  0  0  0
   10.3114   -5.0097   19.5278 C   0  0  0  0  0  0  0  0  0  0  0  0
    2.3162   -9.2942   16.6355 C   0  0  0  0  0  0  0  0  0  0  0  0
    2.6061  -10.4546   18.1905 C   0  0  0  0  0  0  0  0  0  0  0  0
    3.7878   -9.9340   18.0739 C   0  0  0  0  0  0  0  0  0  0  0  0
   -0.4055  -11.5394   17.3794 N   0  0  0  0  0  0  0  0  0  0  0  0
   10.7062   -4.1613   25.2247 C   0  0  0  0  0  0  0  0  0  0  0  0
    7.1876   -6.5554   17.5252 C   0  0  0  0  0  0  0  0  0  0  0  0
    4.8277   -8.1268   16.2195 C   0  0  0  0  0  0  0  0  0  0  0  0
    8.4485   -7.6712   15.9411 C   0  0  0  0  0  0  0  0  0  0  0  0
   10.8339   -3.9253   18.7860 C   0  0  0  0  0  0  0  0  0  0  0  0
    1.6624  -11.1233   18.5201 C   0  0  0  0  0  0  0  0  0  0  0  0
   10.0399   -5.0944   16.7676 C   0  0  0  0  0  0  0  0  0  0  0  0
    2.2408  -11.5423   19.4928 O   0  0  0  0  0  0  0  0  0  0  0  0
    3.7878   -8.8889   16.8950 N   0  0  0  0  0  0  0  0  0  0  0  0
    4.8584   -9.5835   18.1368 O   0  0  0  0  0  0  0  0  0  0  0  0
    1.0389   -9.7203   16.4364 C   0  0  0  0  0  0  0  0  0  0  0  0
   10.8435   -3.3506   22.9648 C   0  0  0  0  0  0  0  0  0  0  0  0
    8.4380   -6.8880   16.9642 N   0  0  0  0  0  0  0  0  0  0  0  0
    7.1820   -8.6200   15.8633 C   0  0  0  0  0  0  0  0  0  0  0  0
   11.4363   -2.7510   20.6521 N   0  0  0  0  0  0  0  0  0  0  0  0
   10.2605   -1.8831   24.7729 C   0  0  0  0  0  0  0  0  0  0  0  0
    0.0274  -10.4825   16.5990 C   0  0  0  0  0  0  0  0  0  0  0  0
   10.6925   -4.1363   17.3135 C   0  0  0  0  0  0  0  0  0  0  0  0
   10.5475   -2.0501   23.4426 C   0  0  0  0  0  0  0  0  0  0  0  0
    0.5062  -11.7019   18.3550 C   0  0  0  0  0  0  0  0  0  0  0  0
   10.5502   -4.8194   21.0153 C   0  0  0  0  0  0  0  0  0  0  0  0
    6.1593   -7.3472   17.6281 C   0  0  0  0  0  0  0  0  0  0  0  0
   10.9631   -4.3791   23.8903 C   0  0  0  0  0  0  0  0  0  0  0  0
   11.3326   -2.8438   19.2859 N   0  0  0  0  0  0  0  0  0  0  0  0
   10.9619   -3.6041   21.5796 C   0  0  0  0  0  0  0  0  0  0  0  0
    9.7262   -6.0515   18.9487 C   0  0  0  0  0  0  0  0  0  0  0  0
    9.3837   -6.0476   17.5526 C   0  0  0  0  0  0  0  0  0  0  0  0
  1 10  1  0
  1 21  1  0
  1 29  1  0
  2  8  4  0
  2 23  4  0
  3 12  4  0
  3 28  4  0
  3 33  4  0
  4 16  4  0
  4 18  4  0
  5  6  4  0
  5 13  4  0
  6 16  4  0
  6 17  4  0
  7 24  4  0
  7 27  4  0
  8 30  4  0
  9 20  1  0
  9 29  1  0
 10 16  1  0
 11 20  1  0
 11 21  1  0
 12 25  4  0
 12 31  4  0
 13 15  4  0
 13 27  4  0
 14 25  4  0
 14 34  4  0
 18 24  4  0
 19 26  4  0
 19 30  4  0
 19 32  1  0
 20 34  1  0
 22 31  4  0
 22 32  4  0
 23 26  4  0
 28 32  4  0
 33 34  4  0
M  END
$$$$

 Created by Python create_sdf_string function

 34 51  0  0  0  0  0  0  0  0999 V2000
    5.6496   -8.1955   17.0520 C   0  0  0  0  0  0  0  0  0  0  0  0
   10.1027   -2.6401   25.6934 C   0  0  0  0  0  0  0  0  0  0  0  0
    2.6656  -10.2798   18.2088 C   0  0  0  0  0  0  0  0  0  0  0  0
    3.8440   -9.9590   18.0775 C   0  0  0  0  0  0  0  0  0  0  0  0
   -1.0307  -10.6165   16.7267 N   0  0  0  0  0  0  0  0  0  0  0  0
    7.8937   -6.1878   17.7465 C   0  0  0  0  0  0  0  0  0  0  0  0
    4.6054   -7.2091   16.4942 C   0  0  0  0  0  0  0  0  0  0  0  0
    8.0797   -7.6820   15.9289 C   0  0  0  0  0  0  0  0  0  0  0  0
    0.8730  -10.8813   18.6627 C   0  0  0  0  0  0  0  0  0  0  0  0
    9.6154   -5.5009   18.2863 C   0  0  0  0  0  0  0  0  0  0  0  0
    2.7351  -11.2915   18.4091 F   0  0  0  0  0  0  0  0  0  0  0  0
    3.4402   -9.0302   16.7522 C   0  0  0  0  0  0  0  0  0  0  0  0
    1.0905   -9.6193   16.4149 C   0  0  0  0  0  0  0  0  0  0  0  0
   11.2611   -3.4919   23.0297 C   0  0  0  0  0  0  0  0  0  0  0  0
    8.4804   -7.0284   16.7320 N   0  0  0  0  0  0  0  0  0  0  0  0
   11.2912   -2.7659   20.6754 N   0  0  0  0  0  0  0  0  0  0  0  0
   10.5728   -2.1112   24.9552 C   0  0  0  0  0  0  0  0  0  0  0  0
   10.3154   -4.4444   17.2623 C   0  0  0  0  0  0  0  0  0  0  0  0
   10.1360   -1.8569   23.2557 C   0  0  0  0  0  0  0  0  0  0  0  0
    0.3665  -11.8167   18.5812 C   0  0  0  0  0  0  0  0  0  0  0  0
   10.5664   -4.9547   21.1098 C   0  0  0  0  0  0  0  0  0  0  0  0
    6.2660   -7.6629   17.4780 N   0  0  0  0  0  0  0  0  0  0  0  0
   11.4737   -3.0217   19.4654 N   0  0  0  0  0  0  0  0  0  0  0  0
   11.1994   -3.3040   21.9141 C   0  0  0  0  0  0  0  0  0  0  0  0
    9.4661   -4.8328   19.1470 C   0  0  0  0  0  0  0  0  0  0  0  0
    9.8781   -4.9174   19.4406 He  0  0  0  0  0  0  0  0  0  0  0  0
    1.3581  -10.0446   16.6976 He  0  0  0  0  0  0  0  0  0  0  0  0
   10.7679   -4.2401   25.1421 He  0  0  0  0  0  0  0  0  0  0  0  0
   11.6540   -4.4268   17.9518 He  0  0  0  0  0  0  0  0  0  0  0  0
    4.6022   -9.9411   18.1364 He  0  0  0  0  0  0  0  0  0  0  0  0
    6.6736   -7.6700   15.9358 He  0  0  0  0  0  0  0  0  0  0  0  0
   -0.5144  -10.7149   16.5414 He  0  0  0  0  0  0  0  0  0  0  0  0
   10.7407   -4.1904   23.8702 He  0  0  0  0  0  0  0  0  0  0  0  0
    9.8706   -6.2169   18.3332 He  0  0  0  0  0  0  0  0  0  0  0  0
  1  7  1  0
  1  8  4  0
  1 10  3  0
  1 15  4  0
  1 22  1  0
  1 24  1  0
  2  7  1  0
  2  8  2  0
  2 10  3  0
  2 14  3  0
  2 15  3  0
  2 17  4  0
  2 23  1  0
  3  6  3  0
  3  9  4  0
  3 18  1  0
  4 14  4  0
  4 20  1  0
  4 22  1  0
  4 25  2  0
  5 11  4  0
  5 20  4  0
  6 14  3  0
  6 15  1  0
  6 18  1  0
  6 19  3  0
  6 22  1  0
  6 24  2  0
  8 15  1  0
  9 11  3  0
  9 17  2  0
 10 13  3  0
 10 15  3  0
 10 19  3  0
 10 20  1  0
 11 13  3  0
 11 16  1  0
 11 17  2  0
 11 19  3  0
 12 17  2  0
 12 19  4  0
 12 20  4  0
 13 16  2  0
 14 19  4  0
 14 24  1  0
 16 24  4  0
 17 18  1  0
 17 19  2  0
 19 23  3  0
 21 24  4  0
 24 25  3  0
M  END
$$$$

 Created by Python create_sdf_string function

 34 39  0  0  0  0  0  0  0  0999 V2000
    5.8092   -8.0773   16.7147 C   0  0  0  0  0  0  0  0  0  0  0  0
   10.2285   -2.8369   25.7173 C   0  0  0  0  0  0  0  0  0  0  0  0
   10.4091   -4.8110   19.6910 C   0  0  0  0  0  0  0  0  0  0  0  0
    1.6440   -9.9821   17.0336 C   0  0  0  0  0  0  0  0  0  0  0  0
    3.1248  -10.6972   18.4016 C   0  0  0  0  0  0  0  0  0  0  0  0
    3.8709   -9.7665   17.7206 C   0  0  0  0  0  0  0  0  0  0  0  0
   -0.6541  -11.2680   17.3236 N   0  0  0  0  0  0  0  0  0  0  0  0
   10.6148   -4.0532   25.3138 C   0  0  0  0  0  0  0  0  0  0  0  0
    7.4375   -6.8044   17.7949 C   0  0  0  0  0  0  0  0  0  0  0  0
    4.4648   -7.9623   16.4587 C   0  0  0  0  0  0  0  0  0  0  0  0
    8.0838   -7.7967   15.8306 C   0  0  0  0  0  0  0  0  0  0  0  0
   10.8380   -4.0129   18.6882 C   0  0  0  0  0  0  0  0  0  0  0  0
    1.4831  -10.9788   18.1444 C   0  0  0  0  0  0  0  0  0  0  0  0
    9.7307   -5.6052   17.3467 C   0  0  0  0  0  0  0  0  0  0  0  0
    2.5930  -11.2053   19.0026 N   0  0  0  0  0  0  0  0  0  0  0  0
    3.2342   -8.9554   16.7912 C   0  0  0  0  0  0  0  0  0  0  0  0
    4.8601   -9.8566   18.2130 N   0  0  0  0  0  0  0  0  0  0  0  0
    0.8335   -9.7150   16.2108 C   0  0  0  0  0  0  0  0  0  0  0  0
   10.8076   -3.2564   23.0725 C   0  0  0  0  0  0  0  0  0  0  0  0
    8.4368   -6.9594   16.7925 N   0  0  0  0  0  0  0  0  0  0  0  0
    6.7454   -7.9192   15.5868 C   0  0  0  0  0  0  0  0  0  0  0  0
   11.4178   -2.7496   20.6955 N   0  0  0  0  0  0  0  0  0  0  0  0
   10.1268   -1.8317   24.8173 C   0  0  0  0  0  0  0  0  0  0  0  0
   -0.4441  -10.4240   16.3999 C   0  0  0  0  0  0  0  0  0  0  0  0
   10.5909   -4.4590   17.4112 C   0  0  0  0  0  0  0  0  0  0  0  0
   10.4867   -2.0319   23.5122 C   0  0  0  0  0  0  0  0  0  0  0  0
    0.3749  -11.5207   18.2572 C   0  0  0  0  0  0  0  0  0  0  0  0
   10.4450   -4.7363   21.0527 C   0  0  0  0  0  0  0  0  0  0  0  0
    6.3080   -7.4544   17.8860 C   0  0  0  0  0  0  0  0  0  0  0  0
   10.9038   -4.2905   24.0013 C   0  0  0  0  0  0  0  0  0  0  0  0
   11.3216   -2.9485   19.2621 N   0  0  0  0  0  0  0  0  0  0  0  0
   10.9083   -3.5564   21.6743 C   0  0  0  0  0  0  0  0  0  0  0  0
    9.8561   -5.9363   19.2564 C   0  0  0  0  0  0  0  0  0  0  0  0
    9.4596   -6.1787   18.2881 C   0  0  0  0  0  0  0  0  0  0  0  0
  1 10  1  0
  1 21  1  0
  1 29  1  0
  2  8  4  0
  2 23  4  0
  3 12  4  0
  3 28  4  0
  3 33  4  0
  4 13  4  0
  4 16  4  0
  4 18  4  0
  5  6  4  0
  5 15  4  0
  6 16  4  0
  6 17  4  0
  7 24  4  0
  7 27  4  0
  8 30  4  0
  9 20  1  0
  9 29  1  0
 10 16  4  0
 11 20  1  0
 11 21  1  0
 12 25  4  0
 12 31  4  0
 13 15  4  0
 13 27  4  0
 14 20  1  0
 14 25  4  0
 14 34  4  0
 18 24  4  0
 19 26  4  0
 19 30  4  0
 19 32  1  0
 22 31  4  0
 22 32  4  0
 23 26  4  0
 28 32  4  0
 33 34  4  0
M  END
$$$$

 Created by Python create_sdf_string function

 34 98  0  0  0  0  0  0  0  0999 V2000
    9.8794   -2.4555   25.5829 C   0  0  0  0  0  0  0  0  0  0  0  0
   10.3501   -4.8557   19.7213 C   0  0  0  0  0  0  0  0  0  0  0  0
    1.4853  -10.0040   17.6099 Br  0  0  0  0  0  0  0  0  0  0  0  0
    2.9810  -10.4565   18.2754 C   0  0  0  0  0  0  0  0  0  0  0  0
    4.1672   -9.4178   17.4710 Cl  0  0  0  0  0  0  0  0  0  0  0  0
    0.1284  -11.0715   17.1867 N   0  0  0  0  0  0  0  0  0  0  0  0
   10.5637   -4.1631   25.0096 C   0  0  0  0  0  0  0  0  0  0  0  0
    7.0283   -7.8019   17.6665 I   0  0  0  0  0  0  0  0  0  0  0  0
    4.1473   -8.0778   17.0992 C   0  0  0  0  0  0  0  0  0  0  0  0
   10.2501   -4.1243   19.6390 C   0  0  0  0  0  0  0  0  0  0  0  0
    1.1449  -10.8827   17.6328 C   0  0  0  0  0  0  0  0  0  0  0  0
    9.4188   -5.3978   17.8643 C   0  0  0  0  0  0  0  0  0  0  0  0
    1.8212  -11.0487   18.7031 N   0  0  0  0  0  0  0  0  0  0  0  0
    3.3707   -9.0117   17.0020 S   0  0  0  0  0  0  0  0  0  0  0  0
    5.3486  -10.4107   18.5708 S   0  0  0  0  0  0  0  0  0  0  0  0
    0.6143   -9.7724   15.8502 C   0  0  0  0  0  0  0  0  0  0  0  0
   10.5543   -3.1320   23.0862 C   0  0  0  0  0  0  0  0  0  0  0  0
    8.4726   -6.9669   16.8313 N   0  0  0  0  0  0  0  0  0  0  0  0
   11.1098   -2.6521   20.9441 N   0  0  0  0  0  0  0  0  0  0  0  0
   10.2505   -1.8450   24.7863 C   0  0  0  0  0  0  0  0  0  0  0  0
   -0.3531  -10.2925   15.7546 C   0  0  0  0  0  0  0  0  0  0  0  0
   10.7154   -4.5554   17.6217 C   0  0  0  0  0  0  0  0  0  0  0  0
   10.2613   -2.0724   23.1166 C   0  0  0  0  0  0  0  0  0  0  0  0
    0.0894  -11.1439   18.0245 C   0  0  0  0  0  0  0  0  0  0  0  0
   10.5058   -4.8856   21.1370 C   0  0  0  0  0  0  0  0  0  0  0  0
    6.3312   -7.1871   17.7900 C   0  0  0  0  0  0  0  0  0  0  0  0
   10.3850   -4.2406   23.9928 C   0  0  0  0  0  0  0  0  0  0  0  0
   11.6352   -2.8875   19.1922 N   0  0  0  0  0  0  0  0  0  0  0  0
   10.9454   -3.2086   21.7039 C   0  0  0  0  0  0  0  0  0  0  0  0
   10.0653   -5.9527   19.0997 C   0  0  0  0  0  0  0  0  0  0  0  0
    9.4764   -6.2661   18.5166 C   0  0  0  0  0  0  0  0  0  0  0  0
    5.7530   -8.1229   17.0824 He  0  0  0  0  0  0  0  0  0  0  0  0
    6.8086   -8.0681   15.8511 He  0  0  0  0  0  0  0  0  0  0  0  0
    7.7065   -8.0418   15.6472 He  0  0  0  0  0  0  0  0  0  0  0  0
  1  7  4  0
  1 11  4  0
  1 12  3  0
  1 20  4  0
  1 23  3  0
  1 25  1  0
  1 27  3  0
  2  5  1  0
  2  9  2  0
  2 10  4  0
  2 12  2  0
  2 21  2  0
  2 25  2  0
  2 27  2  0
  2 30  2  0
  3  7  4  0
  3  9  2  0
  3 10  3  0
  3 11  1  0
  3 13  3  0
  3 14  4  0
  3 16  4  0
  3 25  2  0
  3 26  1  0
  3 27  4  0
  3 30  1  0
  4  5  4  0
  5  8  3  0
  5 14  4  0
  5 15  4  0
  5 30  1  0
  6  8  4  0
  6 11  4  0
  6 13  4  0
  6 18  2  0
  6 20  1  0
  6 21  4  0
  6 25  3  0
  6 30  4  0
  6 31  2  0
  7 11  4  0
  7 17  1  0
  7 27  3  0
  8 13  4  0
  8 14  3  0
  8 18  1  0
  8 20  2  0
  8 23  2  0
  8 26  1  0
  8 30  2  0
  9 12  4  0
  9 14  4  0
  9 15  4  0
  9 16  3  0
  9 23  3  0
 10 22  4  0
 10 25  4  0
 10 28  3  0
 11 13  4  0
 11 18  4  0
 11 19  3  0
 11 23  1  0
 11 26  2  0
 12 15  1  0
 12 17  3  0
 12 18  2  0
 12 20  4  0
 12 22  4  0
 12 23  3  0
 12 24  4  0
 12 31  4  0
 13 18  3  0
 13 28  1  0
 14 15  4  0
 14 19  4  0
 14 22  2  0
 16 24  3  0
 16 31  3  0
 17 23  4  0
 17 27  4  0
 17 30  1  0
 18 26  4  0
 18 30  4  0
 19 28  4  0
 19 29  2  0
 20 21  3  0
 20 23  4  0
 20 31  4  0
 23 30  3  0
 24 26  1  0
 25 29  4  0
 25 30  1  0
 26 29  3  0
 26 30  4  0
 27 30  3  0
 27 31  4  0
 28 31  4  0
 30 31  4  0
M  END
$$$$

 Created by Python create_sdf_string function

 34 38  0  0  0  0  0  0  0  0999 V2000
    5.5345   -8.2344   16.8905 C   0  0  0  0  0  0  0  0  0  0  0  0
    9.9861   -2.5862   25.7026 C   0  0  0  0  0  0  0  0  0  0  0  0
   10.4343   -5.0568   19.8062 C   0  0  0  0  0  0  0  0  0  0  0  0
    1.6599   -9.9679   16.9048 C   0  0  0  0  0  0  0  0  0  0  0  0
    3.3854  -10.7912   18.7679 C   0  0  0  0  0  0  0  0  0  0  0  0
    3.8090   -9.9263   17.9055 C   0  0  0  0  0  0  0  0  0  0  0  0
   -0.8071  -11.0899   16.8125 N   0  0  0  0  0  0  0  0  0  0  0  0
   10.3352   -3.8623   25.3701 C   0  0  0  0  0  0  0  0  0  0  0  0
    7.3598   -7.4493   17.8440 C   0  0  0  0  0  0  0  0  0  0  0  0
    4.3520   -8.5537   16.7871 C   0  0  0  0  0  0  0  0  0  0  0  0
    6.8411   -7.9722   15.4404 C   0  0  0  0  0  0  0  0  0  0  0  0
   10.7239   -4.0515   18.9447 C   0  0  0  0  0  0  0  0  0  0  0  0
    1.2566  -10.8420   17.8493 C   0  0  0  0  0  0  0  0  0  0  0  0
    9.8615   -5.1441   17.1852 C   0  0  0  0  0  0  0  0  0  0  0  0
    2.0936  -11.2156   18.7792 N   0  0  0  0  0  0  0  0  0  0  0  0
    3.0155   -9.2983   16.9749 C   0  0  0  0  0  0  0  0  0  0  0  0
    5.0359   -9.6757   18.0519 N   0  0  0  0  0  0  0  0  0  0  0  0
    0.8042   -9.6688   15.8158 C   0  0  0  0  0  0  0  0  0  0  0  0
   10.6493   -3.2059   23.0871 C   0  0  0  0  0  0  0  0  0  0  0  0
    8.4428   -7.1257   17.0827 N   0  0  0  0  0  0  0  0  0  0  0  0
    7.6245   -8.2616   15.7858 C   0  0  0  0  0  0  0  0  0  0  0  0
   11.2557   -2.6652   20.7185 N   0  0  0  0  0  0  0  0  0  0  0  0
    9.9107   -1.6371   24.7320 C   0  0  0  0  0  0  0  0  0  0  0  0
   -0.3821  -10.3737   15.8533 C   0  0  0  0  0  0  0  0  0  0  0  0
   10.4464   -4.0897   17.6266 C   0  0  0  0  0  0  0  0  0  0  0  0
   10.2989   -1.9068   23.4223 C   0  0  0  0  0  0  0  0  0  0  0  0
    0.0652  -11.3730   17.8284 C   0  0  0  0  0  0  0  0  0  0  0  0
   10.5638   -4.8210   21.2138 C   0  0  0  0  0  0  0  0  0  0  0  0
    6.2180   -7.4628   17.7613 C   0  0  0  0  0  0  0  0  0  0  0  0
   10.7259   -4.1720   24.0486 C   0  0  0  0  0  0  0  0  0  0  0  0
   11.2175   -2.8470   19.3611 N   0  0  0  0  0  0  0  0  0  0  0  0
   10.8540   -3.5295   21.6374 C   0  0  0  0  0  0  0  0  0  0  0  0
    9.9045   -6.2774   19.2613 C   0  0  0  0  0  0  0  0  0  0  0  0
    9.3967   -6.2065   17.8969 C   0  0  0  0  0  0  0  0  0  0  0  0
  1 10  1  0
  1 29  1  0
  2  8  4  0
  2 23  4  0
  3 12  4  0
  3 28  4  0
  3 33  4  0
  4 13  4  0
  4 16  4  0
  4 18  4  0
  5  6  4  0
  5 15  4  0
  6 16  4  0
  6 17  4  0
  7 24  4  0
  7 27  4  0
  8 30  4  0
  9 20  1  0
  9 29  1  0
 10 16  4  0
 11 21  1  0
 12 25  4  0
 12 31  4  0
 13 15  4  0
 13 27  4  0
 14 25  4  0
 14 34  4  0
 18 24  4  0
 19 26  4  0
 19 30  4  0
 19 32  1  0
 20 21  1  0
 20 34  1  0
 22 31  4  0
 22 32  4  0
 23 26  4  0
 28 32  4  0
 33 34  4  0
M  END
$$$$

 Created by Python create_sdf_string function

 34 90  0  0  0  0  0  0  0  0999 V2000
    5.7875   -7.9994   16.6401 C   0  0  0  0  0  0  0  0  0  0  0  0
    9.8718   -2.2733   25.6949 C   0  0  0  0  0  0  0  0  0  0  0  0
   10.5368   -4.8395   19.9747 P   0  0  0  0  0  0  0  0  0  0  0  0
    1.4349  -10.6451   16.3723 C   0  0  0  0  0  0  0  0  0  0  0  0
    3.7065  -10.8124   19.1187 C   0  0  0  0  0  0  0  0  0  0  0  0
    3.7694   -9.8003   18.0460 C   0  0  0  0  0  0  0  0  0  0  0  0
   10.7361   -3.9286   25.5102 C   0  0  0  0  0  0  0  0  0  0  0  0
    6.9220   -7.4307   17.6247 F   0  0  0  0  0  0  0  0  0  0  0  0
   11.2383   -3.4151   18.9086 C   0  0  0  0  0  0  0  0  0  0  0  0
    0.8868  -10.3703   17.5813 C   0  0  0  0  0  0  0  0  0  0  0  0
   10.0707   -4.5261   16.5040 F   0  0  0  0  0  0  0  0  0  0  0  0
    2.3939  -11.4206   18.3257 N   0  0  0  0  0  0  0  0  0  0  0  0
    3.3314   -9.5153   16.9008 C   0  0  0  0  0  0  0  0  0  0  0  0
    4.5546   -9.6025   18.1069 N   0  0  0  0  0  0  0  0  0  0  0  0
    0.4802   -9.5546   15.9987 C   0  0  0  0  0  0  0  0  0  0  0  0
   10.9894   -3.1707   23.1271 C   0  0  0  0  0  0  0  0  0  0  0  0
    8.2313   -7.3575   17.1011 N   0  0  0  0  0  0  0  0  0  0  0  0
    8.1031   -8.7158   15.9606 C   0  0  0  0  0  0  0  0  0  0  0  0
   11.0554   -2.7836   20.4804 N   0  0  0  0  0  0  0  0  0  0  0  0
    9.7980   -1.6600   24.8010 C   0  0  0  0  0  0  0  0  0  0  0  0
   -0.6263  -10.9126   15.4795 C   0  0  0  0  0  0  0  0  0  0  0  0
   10.4071   -4.0745   17.8477 C   0  0  0  0  0  0  0  0  0  0  0  0
   10.1425   -2.1642   23.1800 C   0  0  0  0  0  0  0  0  0  0  0  0
    0.1174  -11.3665   17.7664 C   0  0  0  0  0  0  0  0  0  0  0  0
   10.8162   -5.3919   21.2040 C   0  0  0  0  0  0  0  0  0  0  0  0
    5.9616   -7.1700   17.7161 C   0  0  0  0  0  0  0  0  0  0  0  0
   10.9191   -4.0696   24.1704 C   0  0  0  0  0  0  0  0  0  0  0  0
   11.5373   -2.7398   19.2015 N   0  0  0  0  0  0  0  0  0  0  0  0
   10.7846   -3.2697   21.6969 C   0  0  0  0  0  0  0  0  0  0  0  0
   10.0298   -5.6044   18.8784 C   0  0  0  0  0  0  0  0  0  0  0  0
    8.5434   -7.0299   17.4753 C   0  0  0  0  0  0  0  0  0  0  0  0
   -0.0242  -10.8262   16.5737 He  0  0  0  0  0  0  0  0  0  0  0  0
    5.0087   -8.3607   16.8479 He  0  0  0  0  0  0  0  0  0  0  0  0
    6.5594   -7.7109   15.4803 He  0  0  0  0  0  0  0  0  0  0  0  0
  1  9  2  0
  1 10  2  0
  1 20  3  0
  1 21  3  0
  2  7  4  0
  2  9  4  0
  2 17  1  0
  2 21  3  0
  3  4  1  0
  3  9  4  0
  3 13  3  0
  3 25  4  0
  3 29  3  0
  3 30  4  0
  4  5  2  0
  4 10  4  0
  4 11  2  0
  4 14  4  0
  4 16  1  0
  4 23  4  0
  5  6  4  0
  5 12  4  0
  5 15  4  0
  5 21  4  0
  5 26  4  0
  6 14  4  0
  6 31  2  0
  7  8  3  0
  7 13  3  0
  7 14  1  0
  7 18  3  0
  7 19  4  0
  7 27  4  0
  7 29  4  0
  7 30  4  0
  8 12  4  0
  8 13  4  0
  8 17  1  0
  8 22  3  0
  8 25  1  0
  8 30  2  0
  9 18  3  0
  9 22  2  0
  9 28  2  0
 10 12  4  0
 10 13  2  0
 10 14  4  0
 10 24  4  0
 10 29  1  0
 10 30  1  0
 11 15  2  0
 11 22  4  0
 11 31  3  0
 12 19  2  0
 12 22  3  0
 12 23  2  0
 12 27  2  0
 12 29  2  0
 13 14  2  0
 13 22  1  0
 13 29  2  0
 13 31  3  0
 14 18  4  0
 14 20  3  0
 14 24  3  0
 14 28  1  0
 15 21  4  0
 16 23  3  0
 16 26  4  0
 16 27  4  0
 16 29  1  0
 17 18  1  0
 17 23  2  0
 18 28  1  0
 19 23  2  0
 19 28  4  0
 19 29  4  0
 19 30  1  0
 20 23  4  0
 20 30  3  0
 21 26  3  0
 21 31  4  0
 22 26  3  0
 22 31  1  0
 24 28  1  0
 24 29  1  0
 25 29  4  0
 26 30  1  0
 26 31  3  0
 28 31  4  0
M  END
$$$$

 Created by Python create_sdf_string function

 34 38  0  0  0  0  0  0  0  0999 V2000
    5.6664   -8.0968   16.5191 C   0  0  0  0  0  0  0  0  0  0  0  0
   10.0011   -2.6232   25.6411 C   0  0  0  0  0  0  0  0  0  0  0  0
   10.3636   -4.9730   19.5590 C   0  0  0  0  0  0  0  0  0  0  0  0
    1.6608  -10.0714   16.7698 C   0  0  0  0  0  0  0  0  0  0  0  0
    3.3394  -10.8916   18.7005 C   0  0  0  0  0  0  0  0  0  0  0  0
    3.8222   -9.9281   17.9234 C   0  0  0  0  0  0  0  0  0  0  0  0
   -0.7408  -11.3003   16.5704 C   0  0  0  0  0  0  0  0  0  0  0  0
   10.6108   -3.8231   25.3275 C   0  0  0  0  0  0  0  0  0  0  0  0
    7.1474   -7.2302   18.0121 C   0  0  0  0  0  0  0  0  0  0  0  0
    4.5644   -8.4326   16.4144 C   0  0  0  0  0  0  0  0  0  0  0  0
    6.8006   -8.0468   15.5576 C   0  0  0  0  0  0  0  0  0  0  0  0
   10.7139   -3.8958   18.8354 C   0  0  0  0  0  0  0  0  0  0  0  0
    1.3328  -10.9792   17.7055 C   0  0  0  0  0  0  0  0  0  0  0  0
    9.7606   -5.0422   16.9078 C   0  0  0  0  0  0  0  0  0  0  0  0
    2.1550  -11.3111   18.7452 N   0  0  0  0  0  0  0  0  0  0  0  0
    3.1272   -9.5492   16.9897 C   0  0  0  0  0  0  0  0  0  0  0  0
    4.7048   -9.7722   18.3022 N   0  0  0  0  0  0  0  0  0  0  0  0
    0.9112   -9.8549   15.7055 C   0  0  0  0  0  0  0  0  0  0  0  0
   10.6559   -3.2503   22.9994 C   0  0  0  0  0  0  0  0  0  0  0  0
    8.3432   -7.1444   17.2012 N   0  0  0  0  0  0  0  0  0  0  0  0
    8.1616   -7.8854   16.0918 C   0  0  0  0  0  0  0  0  0  0  0  0
   11.2694   -2.6822   20.7282 N   0  0  0  0  0  0  0  0  0  0  0  0
    9.7369   -1.7015   24.6307 C   0  0  0  0  0  0  0  0  0  0  0  0
   -0.3409  -10.4764   15.6218 C   0  0  0  0  0  0  0  0  0  0  0  0
   10.4144   -4.0872   17.4494 C   0  0  0  0  0  0  0  0  0  0  0  0
   10.1234   -1.9757   23.3771 C   0  0  0  0  0  0  0  0  0  0  0  0
    0.0752  -11.5629   17.6326 C   0  0  0  0  0  0  0  0  0  0  0  0
   10.5762   -4.8739   21.0438 C   0  0  0  0  0  0  0  0  0  0  0  0
    6.0823   -7.3438   17.8245 C   0  0  0  0  0  0  0  0  0  0  0  0
   10.9042   -4.1261   24.0493 C   0  0  0  0  0  0  0  0  0  0  0  0
   11.2305   -2.7838   19.3813 N   0  0  0  0  0  0  0  0  0  0  0  0
   10.8642   -3.5916   21.6147 C   0  0  0  0  0  0  0  0  0  0  0  0
    9.7821   -6.1360   18.9611 C   0  0  0  0  0  0  0  0  0  0  0  0
    9.2760   -6.1876   17.6090 C   0  0  0  0  0  0  0  0  0  0  0  0
  1 10  1  0
  1 11  1  0
  1 29  1  0
  2  8  4  0
  2 23  4  0
  3 12  4  0
  3 28  4  0
  3 33  4  0
  4 13  4  0
  4 16  4  0
  4 18  4  0
  5  6  4  0
  5 15  4  0
  6 16  4  0
  6 17  4  0
  7 24  4  0
  7 27  4  0
  8 30  4  0
  9 20  1  0
  9 29  1  0
 11 21  1  0
 12 25  4  0
 12 31  4  0
 13 15  4  0
 13 27  4  0
 14 25  4  0
 14 34  4  0
 18 24  4  0
 19 26  4  0
 19 30  4  0
 19 32  1  0
 20 21  1  0
 20 34  1  0
 22 31  4  0
 22 32  4  0
 23 26  4  0
 28 32  4  0
 33 34  4  0
M  END
$$$$

 Created by Python create_sdf_string function

 34 44  0  0  0  0  0  0  0  0999 V2000
    6.4733   -8.0011   16.5154 C   0  0  0  0  0  0  0  0  0  0  0  0
    9.8472   -2.5269   25.3906 C   0  0  0  0  0  0  0  0  0  0  0  0
   10.9321   -5.0407   19.3844 S   0  0  0  0  0  0  0  0  0  0  0  0
    1.9999  -10.1985   16.4333 O   0  0  0  0  0  0  0  0  0  0  0  0
    3.4934  -10.8551   18.7665 C   0  0  0  0  0  0  0  0  0  0  0  0
    3.7980  -10.0159   17.8390 C   0  0  0  0  0  0  0  0  0  0  0  0
   -0.5205  -11.5228   16.4338 C   0  0  0  0  0  0  0  0  0  0  0  0
   10.8077   -4.0040   25.3729 O   0  0  0  0  0  0  0  0  0  0  0  0
    7.6882   -7.1182   18.4400 C   0  0  0  0  0  0  0  0  0  0  0  0
   10.2784   -4.7128   18.8535 C   0  0  0  0  0  0  0  0  0  0  0  0
    1.7103  -10.4975   17.6871 O   0  0  0  0  0  0  0  0  0  0  0  0
    1.7489  -11.0772   18.1293 N   0  0  0  0  0  0  0  0  0  0  0  0
    0.7195   -9.7511   15.5538 O   0  0  0  0  0  0  0  0  0  0  0  0
   10.5463   -3.2766   23.0724 C   0  0  0  0  0  0  0  0  0  0  0  0
    8.1928   -7.1594   17.3690 N   0  0  0  0  0  0  0  0  0  0  0  0
    8.6223   -8.1231   16.2759 C   0  0  0  0  0  0  0  0  0  0  0  0
   11.4256   -2.9145   20.5875 N   0  0  0  0  0  0  0  0  0  0  0  0
    9.8532   -1.6160   24.5138 C   0  0  0  0  0  0  0  0  0  0  0  0
    0.3825  -10.1817   15.4300 C   0  0  0  0  0  0  0  0  0  0  0  0
    9.9731   -3.7920   17.7106 C   0  0  0  0  0  0  0  0  0  0  0  0
    9.8707   -2.1166   23.3983 C   0  0  0  0  0  0  0  0  0  0  0  0
   10.6078   -4.7082   21.0104 C   0  0  0  0  0  0  0  0  0  0  0  0
    6.2835   -7.1133   17.9925 C   0  0  0  0  0  0  0  0  0  0  0  0
   11.3768   -2.6760   19.4944 N   0  0  0  0  0  0  0  0  0  0  0  0
    8.8686   -6.2414   18.1274 C   0  0  0  0  0  0  0  0  0  0  0  0
    4.2050   -8.2411   16.9141 He  0  0  0  0  0  0  0  0  0  0  0  0
    6.6754   -7.5217   15.2838 He  0  0  0  0  0  0  0  0  0  0  0  0
    9.9464   -5.4114   16.7385 He  0  0  0  0  0  0  0  0  0  0  0  0
    2.9763   -9.9335   16.6270 He  0  0  0  0  0  0  0  0  0  0  0  0
    5.2199  -10.2941   18.8182 He  0  0  0  0  0  0  0  0  0  0  0  0
   -0.0641  -11.7718   17.4730 He  0  0  0  0  0  0  0  0  0  0  0  0
   10.9128   -4.1882   24.2298 He  0  0  0  0  0  0  0  0  0  0  0  0
   11.1476   -3.5081   21.3940 He  0  0  0  0  0  0  0  0  0  0  0  0
   10.5110   -6.2333   19.1828 He  0  0  0  0  0  0  0  0  0  0  0  0
  1  4  2  0
  1  9  4  0
  1 10  3  0
  1 23  1  0
  2  6  3  0
  2  8  4  0
  2  9  2  0
  2 11  1  0
  2 16  3  0
  2 18  4  0
  3 10  4  0
  3 15  2  0
  3 22  4  0
  4  9  4  0
  4 12  4  0
  4 13  4  0
  4 19  4  0
  4 20  1  0
  5  6  4  0
  5 23  3  0
  6 12  1  0
  6 16  3  0
  7 10  2  0
  7 19  4  0
  9 15  1  0
  9 23  1  0
 10 16  4  0
 10 20  4  0
 10 23  1  0
 11 12  4  0
 11 13  4  0
 11 18  4  0
 11 22  2  0
 12 18  4  0
 14 21  4  0
 14 22  2  0
 15 16  1  0
 15 19  2  0
 16 23  3  0
 17 24  4  0
 18 24  3  0
 19 20  2  0
 20 24  4  0
 24 25  3  0
M  END
$$$$

 Created by Python create_sdf_string function

 34 40  0  0  0  0  0  0  0  0999 V2000
    5.8307   -8.1045   16.5555 C   0  0  0  0  0  0  0  0  0  0  0  0
    9.9882   -2.6845   25.5601 C   0  0  0  0  0  0  0  0  0  0  0  0
   10.4517   -5.0768   19.6463 C   0  0  0  0  0  0  0  0  0  0  0  0
    1.9430   -9.9393   16.5942 C   0  0  0  0  0  0  0  0  0  0  0  0
    3.6050  -10.7125   18.6136 C   0  0  0  0  0  0  0  0  0  0  0  0
    4.0594   -9.8524   17.7536 C   0  0  0  0  0  0  0  0  0  0  0  0
   -0.5959  -11.2996   16.2946 C   0  0  0  0  0  0  0  0  0  0  0  0
   10.5912   -3.8569   25.2642 C   0  0  0  0  0  0  0  0  0  0  0  0
    7.3716   -7.3096   18.3216 C   0  0  0  0  0  0  0  0  0  0  0  0
    4.5604   -8.6150   16.4087 N   0  0  0  0  0  0  0  0  0  0  0  0
    6.9411   -7.9033   15.6853 C   0  0  0  0  0  0  0  0  0  0  0  0
   10.6524   -4.0121   18.8325 C   0  0  0  0  0  0  0  0  0  0  0  0
    1.4250  -10.7993   17.5110 C   0  0  0  0  0  0  0  0  0  0  0  0
    9.6756   -5.1384   17.0287 C   0  0  0  0  0  0  0  0  0  0  0  0
    2.2268  -11.0748   18.6125 N   0  0  0  0  0  0  0  0  0  0  0  0
    3.2930   -9.3401   16.7674 C   0  0  0  0  0  0  0  0  0  0  0  0
    5.0897  -10.1255   18.6067 O   0  0  0  0  0  0  0  0  0  0  0  0
    1.0582   -9.7455   15.5668 N   0  0  0  0  0  0  0  0  0  0  0  0
   10.6662   -3.2934   22.9607 C   0  0  0  0  0  0  0  0  0  0  0  0
    8.5206   -7.2071   17.4267 N   0  0  0  0  0  0  0  0  0  0  0  0
    8.2867   -7.7284   16.1906 C   0  0  0  0  0  0  0  0  0  0  0  0
   11.2566   -2.6863   20.7232 N   0  0  0  0  0  0  0  0  0  0  0  0
    9.6677   -1.7864   24.5706 C   0  0  0  0  0  0  0  0  0  0  0  0
   -0.0728  -10.4318   15.4490 C   0  0  0  0  0  0  0  0  0  0  0  0
   10.3188   -4.0476   17.5274 C   0  0  0  0  0  0  0  0  0  0  0  0
   10.0759   -2.0567   23.2831 C   0  0  0  0  0  0  0  0  0  0  0  0
    0.1486  -11.5200   17.3735 C   0  0  0  0  0  0  0  0  0  0  0  0
   10.6880   -4.9102   21.0885 C   0  0  0  0  0  0  0  0  0  0  0  0
    6.1137   -7.2941   17.9260 C   0  0  0  0  0  0  0  0  0  0  0  0
   10.9115   -4.1790   23.9967 C   0  0  0  0  0  0  0  0  0  0  0  0
   11.1296   -2.8555   19.3563 N   0  0  0  0  0  0  0  0  0  0  0  0
   10.8956   -3.6314   21.6074 C   0  0  0  0  0  0  0  0  0  0  0  0
    9.9377   -6.2567   19.0769 C   0  0  0  0  0  0  0  0  0  0  0  0
    9.4150   -6.2199   17.8140 C   0  0  0  0  0  0  0  0  0  0  0  0
  1 10  1  0
  1 11  1  0
  1 29  1  0
  2  8  4  0
  2 23  4  0
  3 12  4  0
  3 28  4  0
  3 33  4  0
  4 13  4  0
  4 16  4  0
  4 18  4  0
  5  6  4  0
  5 15  4  0
  6 10  1  0
  6 16  4  0
  6 17  4  0
  7 24  4  0
  7 27  4  0
  8 30  4  0
  9 20  1  0
  9 29  1  0
 10 16  4  0
 11 21  1  0
 12 25  4  0
 12 31  4  0
 13 15  4  0
 13 27  4  0
 14 25  4  0
 14 34  4  0
 18 24  4  0
 19 26  4  0
 19 30  4  0
 19 32  1  0
 20 21  1  0
 20 34  1  0
 22 31  4  0
 22 32  4  0
 23 26  4  0
 28 32  4  0
 33 34  4  0
M  END
$$$$

 Created by Python create_sdf_string function

 34 65  0  0  0  0  0  0  0  0999 V2000
    9.9959   -2.4752   25.5494 C   0  0  0  0  0  0  0  0  0  0  0  0
   10.2800   -4.9134   19.8439 C   0  0  0  0  0  0  0  0  0  0  0  0
    1.5690  -10.2567   16.8891 C   0  0  0  0  0  0  0  0  0  0  0  0
    3.6078  -10.6471   18.5976 C   0  0  0  0  0  0  0  0  0  0  0  0
    4.2764   -9.6161   17.1884 C   0  0  0  0  0  0  0  0  0  0  0  0
   10.2845   -3.5584   25.3550 C   0  0  0  0  0  0  0  0  0  0  0  0
    7.2097   -6.6995   18.2630 C   0  0  0  0  0  0  0  0  0  0  0  0
    3.9972   -8.6033   16.5680 N   0  0  0  0  0  0  0  0  0  0  0  0
    7.2723   -8.6072   15.4170 C   0  0  0  0  0  0  0  0  0  0  0  0
   10.4543   -4.5016   18.6112 C   0  0  0  0  0  0  0  0  0  0  0  0
    1.5154  -10.4194   17.8409 C   0  0  0  0  0  0  0  0  0  0  0  0
    9.9031   -5.1113   17.0711 F   0  0  0  0  0  0  0  0  0  0  0  0
    3.4381   -9.8423   17.0064 C   0  0  0  0  0  0  0  0  0  0  0  0
    4.8219  -10.0044   18.4135 F   0  0  0  0  0  0  0  0  0  0  0  0
    1.0447   -9.8903   15.2821 N   0  0  0  0  0  0  0  0  0  0  0  0
   10.8455   -3.5734   22.9759 C   0  0  0  0  0  0  0  0  0  0  0  0
    8.6372   -7.0191   17.2926 N   0  0  0  0  0  0  0  0  0  0  0  0
    7.8727   -7.0264   16.4688 C   0  0  0  0  0  0  0  0  0  0  0  0
    9.8693   -1.9633   24.4263 C   0  0  0  0  0  0  0  0  0  0  0  0
   10.6292   -4.0930   17.6811 C   0  0  0  0  0  0  0  0  0  0  0  0
    9.9985   -1.9726   23.2501 C   0  0  0  0  0  0  0  0  0  0  0  0
    0.1567  -11.4990   17.2421 C   0  0  0  0  0  0  0  0  0  0  0  0
   10.4501   -4.7986   20.7306 C   0  0  0  0  0  0  0  0  0  0  0  0
    6.0390   -7.2894   17.8386 C   0  0  0  0  0  0  0  0  0  0  0  0
   10.7946   -4.2702   23.9670 F   0  0  0  0  0  0  0  0  0  0  0  0
   11.2728   -2.8177   19.4143 N   0  0  0  0  0  0  0  0  0  0  0  0
   10.7310   -3.6869   21.4643 C   0  0  0  0  0  0  0  0  0  0  0  0
   10.4799   -6.7480   19.1248 C   0  0  0  0  0  0  0  0  0  0  0  0
    9.0831   -6.0448   18.0893 C   0  0  0  0  0  0  0  0  0  0  0  0
    5.8903   -8.2542   16.6398 He  0  0  0  0  0  0  0  0  0  0  0  0
   -0.3244  -11.1868   16.6351 He  0  0  0  0  0  0  0  0  0  0  0  0
    2.2219  -11.0060   18.0473 He  0  0  0  0  0  0  0  0  0  0  0  0
   11.1550   -2.9487   20.8575 He  0  0  0  0  0  0  0  0  0  0  0  0
    0.7846  -10.3965   15.4308 He  0  0  0  0  0  0  0  0  0  0  0  0
  1  6  4  0
  1 19  4  0
  2 10  4  0
  2 23  4  0
  2 28  4  0
  2 29  4  0
  3  9  2  0
  3 11  4  0
  3 13  4  0
  3 15  4  0
  3 17  4  0
  3 20  4  0
  3 24  1  0
  3 26  3  0
  3 27  3  0
  4  5  4  0
  4 18  3  0
  4 25  3  0
  4 26  2  0
  4 28  2  0
  5  8  1  0
  5 11  3  0
  5 13  4  0
  6  7  4  0
  6 12  1  0
  6 14  2  0
  6 25  4  0
  7 13  2  0
  7 17  1  0
  8 13  4  0
  8 14  4  0
  8 19  4  0
  8 23  1  0
  8 25  2  0
  9 11  2  0
  9 18  1  0
  9 21  3  0
 10 26  4  0
 11 13  4  0
 11 16  2  0
 11 26  4  0
 11 27  1  0
 12 20  4  0
 12 29  4  0
 13 14  4  0
 13 21  4  0
 13 26  1  0
 13 28  2  0
 14 19  3  0
 14 23  3  0
 16 25  4  0
 16 27  1  0
 16 28  4  0
 17 29  1  0
 18 23  2  0
 18 25  1  0
 19 21  3  0
 19 28  2  0
 21 29  3  0
 23 27  4  0
 24 27  1  0
 24 29  4  0
 26 29  1  0
 27 29  1  0
 28 29  4  0
M  END
$$$$

 Created by Python create_sdf_string function

 34 40  0  0  0  0  0  0  0  0999 V2000
    5.9194   -8.3005   16.6069 C   0  0  0  0  0  0  0  0  0  0  0  0
    9.9312   -2.5893   25.5921 C   0  0  0  0  0  0  0  0  0  0  0  0
   10.3815   -5.1333   19.6374 C   0  0  0  0  0  0  0  0  0  0  0  0
    1.8498  -10.0577   16.5924 C   0  0  0  0  0  0  0  0  0  0  0  0
    3.3939  -10.7862   18.6735 C   0  0  0  0  0  0  0  0  0  0  0  0
    4.0328   -9.8681   17.6681 C   0  0  0  0  0  0  0  0  0  0  0  0
   -0.5087  -11.2256   16.3212 N   0  0  0  0  0  0  0  0  0  0  0  0
   10.4452   -3.8334   25.3103 C   0  0  0  0  0  0  0  0  0  0  0  0
    7.1532   -6.8786   18.1025 C   0  0  0  0  0  0  0  0  0  0  0  0
    4.4750   -8.9557   16.4194 N   0  0  0  0  0  0  0  0  0  0  0  0
    7.1059   -8.3286   15.7640 C   0  0  0  0  0  0  0  0  0  0  0  0
   10.7218   -4.0423   18.8549 C   0  0  0  0  0  0  0  0  0  0  0  0
    1.4131  -10.9063   17.5683 C   0  0  0  0  0  0  0  0  0  0  0  0
    9.8163   -5.1375   16.9606 C   0  0  0  0  0  0  0  0  0  0  0  0
    2.2160  -11.2621   18.6323 N   0  0  0  0  0  0  0  0  0  0  0  0
    3.2254   -9.5209   16.7817 C   0  0  0  0  0  0  0  0  0  0  0  0
    5.1221  -10.0659   18.1770 O   0  0  0  0  0  0  0  0  0  0  0  0
    1.0863   -9.7739   15.4514 N   0  0  0  0  0  0  0  0  0  0  0  0
   10.5343   -3.3080   22.9645 C   0  0  0  0  0  0  0  0  0  0  0  0
    8.3875   -7.0245   17.3265 N   0  0  0  0  0  0  0  0  0  0  0  0
    8.1521   -7.3327   16.0498 C   0  0  0  0  0  0  0  0  0  0  0  0
   11.2717   -2.7843   20.7086 C   0  0  0  0  0  0  0  0  0  0  0  0
    9.7639   -1.6907   24.5695 C   0  0  0  0  0  0  0  0  0  0  0  0
   -0.0534  -10.4261   15.3531 C   0  0  0  0  0  0  0  0  0  0  0  0
   10.5156   -4.1000   17.4791 C   0  0  0  0  0  0  0  0  0  0  0  0
   10.0939   -2.0153   23.2806 C   0  0  0  0  0  0  0  0  0  0  0  0
    0.1593  -11.4354   17.4395 C   0  0  0  0  0  0  0  0  0  0  0  0
   10.5273   -4.9401   21.0891 C   0  0  0  0  0  0  0  0  0  0  0  0
    6.0490   -7.3278   17.8620 C   0  0  0  0  0  0  0  0  0  0  0  0
   10.7204   -4.1844   24.0227 C   0  0  0  0  0  0  0  0  0  0  0  0
   11.2070   -2.9407   19.3842 N   0  0  0  0  0  0  0  0  0  0  0  0
   10.7942   -3.6964   21.6146 C   0  0  0  0  0  0  0  0  0  0  0  0
    9.8096   -6.2123   19.0434 C   0  0  0  0  0  0  0  0  0  0  0  0
    9.3587   -6.1704   17.7348 C   0  0  0  0  0  0  0  0  0  0  0  0
  1 10  1  0
  1 11  1  0
  1 29  1  0
  2  8  4  0
  2 23  4  0
  3 12  4  0
  3 28  4  0
  3 33  4  0
  4 13  4  0
  4 16  4  0
  4 18  4  0
  5  6  4  0
  5 15  4  0
  6 10  1  0
  6 16  4  0
  6 17  4  0
  7 24  4  0
  7 27  4  0
  8 30  4  0
  9 20  1  0
  9 29  1  0
 10 16  1  0
 11 21  1  0
 12 25  4  0
 12 31  4  0
 13 15  4  0
 13 27  4  0
 14 25  4  0
 14 34  4  0
 18 24  4  0
 19 26  4  0
 19 30  4  0
 19 32  1  0
 20 21  1  0
 20 34  1  0
 22 31  4  0
 22 32  4  0
 23 26  4  0
 28 32  4  0
 33 34  4  0
M  END
$$$$

 Created by Python create_sdf_string function

 34 69  0  0  0  0  0  0  0  0999 V2000
    5.3357   -8.0637   16.5411 C   0  0  0  0  0  0  0  0  0  0  0  0
   10.2332   -2.5605   26.0705 S   0  0  0  0  0  0  0  0  0  0  0  0
   10.4434   -5.1048   19.7494 C   0  0  0  0  0  0  0  0  0  0  0  0
    1.7038  -10.0927   17.4572 C   0  0  0  0  0  0  0  0  0  0  0  0
    3.2166  -10.6360   18.6082 C   0  0  0  0  0  0  0  0  0  0  0  0
    4.2646  -10.0563   17.5544 C   0  0  0  0  0  0  0  0  0  0  0  0
    0.0503  -10.9661   15.9623 O   0  0  0  0  0  0  0  0  0  0  0  0
   10.4211   -4.0281   25.1967 C   0  0  0  0  0  0  0  0  0  0  0  0
    7.3920   -6.9968   18.1854 C   0  0  0  0  0  0  0  0  0  0  0  0
    7.0200   -8.8620   15.5092 C   0  0  0  0  0  0  0  0  0  0  0  0
   10.4574   -4.4955   18.9150 O   0  0  0  0  0  0  0  0  0  0  0  0
    2.1794  -11.0270   19.3802 N   0  0  0  0  0  0  0  0  0  0  0  0
    3.7186   -9.4135   16.3350 C   0  0  0  0  0  0  0  0  0  0  0  0
    1.2246   -9.8484   15.4407 N   0  0  0  0  0  0  0  0  0  0  0  0
   10.6192   -3.1952   23.0585 C   0  0  0  0  0  0  0  0  0  0  0  0
    8.4121   -7.0463   17.2898 N   0  0  0  0  0  0  0  0  0  0  0  0
    8.3264   -6.7870   16.1821 C   0  0  0  0  0  0  0  0  0  0  0  0
   11.0900   -2.9850   20.8054 C   0  0  0  0  0  0  0  0  0  0  0  0
    9.5773   -1.4925   24.2578 C   0  0  0  0  0  0  0  0  0  0  0  0
   -0.0842  -10.9300   15.5648 C   0  0  0  0  0  0  0  0  0  0  0  0
   10.5049   -4.3984   17.3909 C   0  0  0  0  0  0  0  0  0  0  0  0
    9.9153   -1.8960   23.3956 C   0  0  0  0  0  0  0  0  0  0  0  0
    0.1674  -11.5089   17.5038 C   0  0  0  0  0  0  0  0  0  0  0  0
   10.3695   -5.0218   20.9159 C   0  0  0  0  0  0  0  0  0  0  0  0
    5.9968   -7.2041   18.0029 C   0  0  0  0  0  0  0  0  0  0  0  0
   10.6810   -4.1276   23.8341 C   0  0  0  0  0  0  0  0  0  0  0  0
   11.2128   -3.2619   19.8303 N   0  0  0  0  0  0  0  0  0  0  0  0
    9.9839   -6.0058   19.3903 C   0  0  0  0  0  0  0  0  0  0  0  0
    3.7359   -9.0083   16.1037 He  0  0  0  0  0  0  0  0  0  0  0  0
    1.2205  -10.7760   17.2749 He  0  0  0  0  0  0  0  0  0  0  0  0
   10.1843   -5.7626   16.7970 He  0  0  0  0  0  0  0  0  0  0  0  0
    5.5441   -9.7011   18.4090 He  0  0  0  0  0  0  0  0  0  0  0  0
   11.0497   -4.0399   21.4493 He  0  0  0  0  0  0  0  0  0  0  0  0
    9.1149   -5.9621   17.4643 He  0  0  0  0  0  0  0  0  0  0  0  0
  1  3  4  0
  1  8  2  0
  1  9  4  0
  1 10  4  0
  1 11  1  0
  1 14  4  0
  1 16  2  0
  1 19  4  0
  1 23  3  0
  1 24  4  0
  1 25  1  0
  1 26  3  0
  1 28  3  0
  2  7  4  0
  2  8  4  0
  2 19  4  0
  2 26  2  0
  2 28  1  0
  3  6  3  0
  3 10  1  0
  3 24  4  0
  3 28  4  0
  4  6  2  0
  4 11  2  0
  4 13  4  0
  4 16  2  0
  4 21  3  0
  4 26  3  0
  5  6  4  0
  5  7  1  0
  5 12  4  0
  5 13  3  0
  5 16  2  0
  5 19  3  0
  5 28  1  0
  6  8  1  0
  6 20  4  0
  6 22  3  0
  7 10  4  0
  7 20  4  0
  7 25  3  0
  8  9  1  0
  8 26  3  0
  9 12  3  0
  9 16  1  0
  9 17  2  0
  9 24  2  0
  9 25  1  0
 10 17  1  0
 10 25  3  0
 11 15  1  0
 11 18  4  0
 11 21  4  0
 13 25  2  0
 14 15  2  0
 14 20  4  0
 15 26  4  0
 15 28  4  0
 16 17  1  0
 17 20  3  0
 17 21  3  0
 17 26  1  0
 17 27  1  0
 18 27  4  0
 19 20  4  0
 19 22  4  0
 20 23  2  0
 20 25  1  0
 22 26  1  0
M  END
$$$$

 Created by Python create_sdf_string function

 34 40  0  0  0  0  0  0  0  0999 V2000
    5.6031   -8.5163   16.8369 C   0  0  0  0  0  0  0  0  0  0  0  0
    9.9258   -2.5559   25.5982 C   0  0  0  0  0  0  0  0  0  0  0  0
   10.3329   -5.1408   19.5858 C   0  0  0  0  0  0  0  0  0  0  0  0
    1.9916  -10.0513   16.6801 C   0  0  0  0  0  0  0  0  0  0  0  0
    3.3980  -10.8472   18.8352 C   0  0  0  0  0  0  0  0  0  0  0  0
    4.0308  -10.0215   17.9054 C   0  0  0  0  0  0  0  0  0  0  0  0
   -0.4165  -11.1716   16.2194 N   0  0  0  0  0  0  0  0  0  0  0  0
   10.4758   -3.8324   25.3248 C   0  0  0  0  0  0  0  0  0  0  0  0
    7.1118   -7.1313   18.1618 C   0  0  0  0  0  0  0  0  0  0  0  0
    4.1244   -8.6778   16.0928 C   0  0  0  0  0  0  0  0  0  0  0  0
    6.8137   -8.3935   15.7649 C   0  0  0  0  0  0  0  0  0  0  0  0
   10.7581   -4.1319   18.8001 C   0  0  0  0  0  0  0  0  0  0  0  0
    1.4200  -10.8709   17.6257 C   0  0  0  0  0  0  0  0  0  0  0  0
    9.8613   -5.2351   16.8921 C   0  0  0  0  0  0  0  0  0  0  0  0
    2.1754  -11.2202   18.7835 N   0  0  0  0  0  0  0  0  0  0  0  0
    3.3059   -9.5494   16.8870 C   0  0  0  0  0  0  0  0  0  0  0  0
    5.3258   -9.7398   17.9155 N   0  0  0  0  0  0  0  0  0  0  0  0
    1.3334   -9.7554   15.5052 N   0  0  0  0  0  0  0  0  0  0  0  0
   10.5521   -3.3398   22.9425 C   0  0  0  0  0  0  0  0  0  0  0  0
    8.3275   -7.0731   17.2645 N   0  0  0  0  0  0  0  0  0  0  0  0
    7.9974   -7.4016   16.0090 C   0  0  0  0  0  0  0  0  0  0  0  0
   11.2298   -2.8317   20.6348 C   0  0  0  0  0  0  0  0  0  0  0  0
    9.7440   -1.6446   24.4991 C   0  0  0  0  0  0  0  0  0  0  0  0
    0.1107  -10.4226   15.2830 C   0  0  0  0  0  0  0  0  0  0  0  0
   10.6026   -4.2194   17.4379 C   0  0  0  0  0  0  0  0  0  0  0  0
   10.0889   -2.0472   23.2694 C   0  0  0  0  0  0  0  0  0  0  0  0
    0.1930  -11.4077   17.4433 C   0  0  0  0  0  0  0  0  0  0  0  0
   10.4661   -4.9508   21.0498 C   0  0  0  0  0  0  0  0  0  0  0  0
    5.9033   -7.2914   17.7770 C   0  0  0  0  0  0  0  0  0  0  0  0
   10.7577   -4.2019   24.0264 C   0  0  0  0  0  0  0  0  0  0  0  0
   11.2408   -2.9898   19.2817 N   0  0  0  0  0  0  0  0  0  0  0  0
   10.7619   -3.7022   21.5607 C   0  0  0  0  0  0  0  0  0  0  0  0
    9.6653   -6.2221   18.9667 C   0  0  0  0  0  0  0  0  0  0  0  0
    9.3185   -6.2014   17.6755 C   0  0  0  0  0  0  0  0  0  0  0  0
  1 10  1  0
  1 11  1  0
  1 17  1  0
  1 29  1  0
  2  8  4  0
  2 23  4  0
  3 12  4  0
  3 28  4  0
  3 33  4  0
  4 13  4  0
  4 16  4  0
  4 18  4  0
  5  6  4  0
  5 15  4  0
  6 16  4  0
  6 17  1  0
  7 24  4  0
  7 27  4  0
  8 30  4  0
  9 20  1  0
  9 29  1  0
 10 16  1  0
 11 21  1  0
 12 25  4  0
 12 31  4  0
 13 15  4  0
 13 27  4  0
 14 25  4  0
 14 34  4  0
 18 24  4  0
 19 26  4  0
 19 30  4  0
 19 32  1  0
 20 21  1  0
 20 34  1  0
 22 31  4  0
 22 32  4  0
 23 26  4  0
 28 32  4  0
 33 34  4  0
M  END
$$$$

 Created by Python create_sdf_string function

 34 74  0  0  0  0  0  0  0  0999 V2000
   10.1209   -2.2874   25.8291 B   0  0  0  0  0  0  0  0  0  0  0  0
   10.5769   -4.9391   19.7415 C   0  0  0  0  0  0  0  0  0  0  0  0
    1.6360  -10.0630   17.1771 F   0  0  0  0  0  0  0  0  0  0  0  0
    3.4564  -10.9996   19.0012 C   0  0  0  0  0  0  0  0  0  0  0  0
    4.2727   -9.9077   17.9188 C   0  0  0  0  0  0  0  0  0  0  0  0
   -0.7370  -11.3082   15.7782 N   0  0  0  0  0  0  0  0  0  0  0  0
   10.6117   -4.1475   25.7355 C   0  0  0  0  0  0  0  0  0  0  0  0
    6.3603   -7.4779   17.4887 C   0  0  0  0  0  0  0  0  0  0  0  0
   10.8413   -4.0097   18.1857 C   0  0  0  0  0  0  0  0  0  0  0  0
   10.1712   -5.4274   16.5697 C   0  0  0  0  0  0  0  0  0  0  0  0
    1.3488  -11.0357   18.2921 N   0  0  0  0  0  0  0  0  0  0  0  0
    3.0617  -10.6053   16.3825 C   0  0  0  0  0  0  0  0  0  0  0  0
    5.5806   -9.9566   18.1397 N   0  0  0  0  0  0  0  0  0  0  0  0
    1.6865   -9.6131   15.2310 N   0  0  0  0  0  0  0  0  0  0  0  0
   10.4800   -3.2208   22.9978 C   0  0  0  0  0  0  0  0  0  0  0  0
    8.2352   -7.1552   17.5506 N   0  0  0  0  0  0  0  0  0  0  0  0
    8.4110   -7.4623   15.8889 C   0  0  0  0  0  0  0  0  0  0  0  0
   11.0434   -2.8451   20.3662 C   0  0  0  0  0  0  0  0  0  0  0  0
    9.7507   -1.5850   24.4001 C   0  0  0  0  0  0  0  0  0  0  0  0
   10.6487   -3.9932   17.3307 C   0  0  0  0  0  0  0  0  0  0  0  0
    9.9253   -1.6966   23.2550 C   0  0  0  0  0  0  0  0  0  0  0  0
    0.1848  -11.3317   17.3444 C   0  0  0  0  0  0  0  0  0  0  0  0
   10.4253   -5.0573   20.9407 C   0  0  0  0  0  0  0  0  0  0  0  0
    5.8638   -7.3711   17.7908 C   0  0  0  0  0  0  0  0  0  0  0  0
   10.9288   -3.9976   23.8606 C   0  0  0  0  0  0  0  0  0  0  0  0
   11.1080   -3.4470   19.3890 N   0  0  0  0  0  0  0  0  0  0  0  0
   10.6701   -3.8509   21.5355 C   0  0  0  0  0  0  0  0  0  0  0  0
   10.1564   -6.2619   19.1258 C   0  0  0  0  0  0  0  0  0  0  0  0
    9.2914   -6.5196   17.5801 C   0  0  0  0  0  0  0  0  0  0  0  0
    5.7013   -8.3466   17.0240 He  0  0  0  0  0  0  0  0  0  0  0  0
    4.4133   -8.5415   16.4144 He  0  0  0  0  0  0  0  0  0  0  0  0
    6.4928   -8.6085   15.4297 He  0  0  0  0  0  0  0  0  0  0  0  0
    2.2965  -10.7332   18.0026 He  0  0  0  0  0  0  0  0  0  0  0  0
    0.1128   -9.8714   14.6921 He  0  0  0  0  0  0  0  0  0  0  0  0
  1 19  4  0
  1 28  4  0
  2 23  4  0
  2 28  4  0
  3 12  4  0
  3 14  1  0
  3 22  4  0
  4  5  4  0
  4  9  1  0
  4 11  4  0
  4 14  3  0
  4 17  2  0
  5  9  2  0
  5 12  4  0
  5 13  1  0
  5 17  3  0
  5 19  4  0
  5 20  3  0
  5 28  4  0
  5 29  4  0
  6 17  4  0
  6 18  3  0
  6 21  2  0
  6 22  2  0
  6 23  2  0
  6 25  3  0
  6 26  2  0
  7  9  2  0
  7 10  4  0
  7 12  2  0
  7 15  3  0
  7 17  4  0
  7 25  4  0
  7 28  2  0
  8 16  1  0
  8 19  4  0
  8 21  1  0
  8 22  1  0
  8 24  1  0
  8 26  3  0
  9 12  1  0
  9 15  1  0
  9 20  3  0
  9 21  1  0
  9 26  4  0
  9 29  3  0
 10 14  3  0
 10 20  4  0
 10 27  1  0
 10 29  4  0
 11 18  4  0
 12 14  3  0
 13 17  2  0
 13 19  4  0
 14 26  3  0
 14 29  4  0
 15 21  4  0
 15 25  4  0
 15 27  1  0
 16 17  1  0
 16 18  1  0
 16 21  3  0
 16 22  3  0
 17 26  3  0
 18 26  4  0
 18 27  4  0
 19 21  4  0
 19 27  3  0
 20 24  1  0
 21 28  1  0
 22 24  3  0
 23 27  4  0
 27 28  3  0
 28 29  4  0
M  END
$$$$

 Created by Python create_sdf_string function

 34 40  0  0  0  0  0  0  0  0999 V2000
    5.6220   -8.7067   16.9005 C   0  0  0  0  0  0  0  0  0  0  0  0
   10.0518   -2.4686   25.5960 C   0  0  0  0  0  0  0  0  0  0  0  0
   10.3285   -5.1162   19.5128 C   0  0  0  0  0  0  0  0  0  0  0  0
    2.0131  -10.0745   16.6631 C   0  0  0  0  0  0  0  0  0  0  0  0
    3.2849  -10.9301   18.8858 C   0  0  0  0  0  0  0  0  0  0  0  0
    4.0338  -10.1688   17.9490 C   0  0  0  0  0  0  0  0  0  0  0  0
   -0.4396  -10.8631   15.9382 N   0  0  0  0  0  0  0  0  0  0  0  0
   10.5743   -3.7335   25.2987 C   0  0  0  0  0  0  0  0  0  0  0  0
    7.1094   -7.1055   18.0934 C   0  0  0  0  0  0  0  0  0  0  0  0
    4.2601   -8.8232   16.1914 C   0  0  0  0  0  0  0  0  0  0  0  0
    6.8276   -8.5242   15.8046 C   0  0  0  0  0  0  0  0  0  0  0  0
   10.7238   -4.0957   18.6584 C   0  0  0  0  0  0  0  0  0  0  0  0
    1.3671  -10.8220   17.5672 C   0  0  0  0  0  0  0  0  0  0  0  0
    9.8152   -5.2742   16.8081 C   0  0  0  0  0  0  0  0  0  0  0  0
    1.9926  -11.2681   18.7146 N   0  0  0  0  0  0  0  0  0  0  0  0
    3.3584   -9.6428   16.9338 C   0  0  0  0  0  0  0  0  0  0  0  0
    5.3941   -9.9014   17.9440 O   0  0  0  0  0  0  0  0  0  0  0  0
    1.4708   -9.6172   15.3856 N   0  0  0  0  0  0  0  0  0  0  0  0
   10.5392   -3.2662   22.9350 C   0  0  0  0  0  0  0  0  0  0  0  0
    8.3401   -7.2350   17.2704 N   0  0  0  0  0  0  0  0  0  0  0  0
    8.0685   -7.7267   16.0340 C   0  0  0  0  0  0  0  0  0  0  0  0
   11.1588   -2.7968   20.5325 C   0  0  0  0  0  0  0  0  0  0  0  0
    9.7736   -1.6008   24.5558 C   0  0  0  0  0  0  0  0  0  0  0  0
    0.2780  -10.1396   15.0510 C   0  0  0  0  0  0  0  0  0  0  0  0
   10.5608   -4.2672   17.2870 C   0  0  0  0  0  0  0  0  0  0  0  0
   10.0409   -1.9640   23.2562 C   0  0  0  0  0  0  0  0  0  0  0  0
    0.1064  -11.2093   17.1473 C   0  0  0  0  0  0  0  0  0  0  0  0
   10.4791   -4.8903   20.9682 C   0  0  0  0  0  0  0  0  0  0  0  0
    5.9393   -7.4913   17.7802 C   0  0  0  0  0  0  0  0  0  0  0  0
   10.7853   -4.1298   23.9793 C   0  0  0  0  0  0  0  0  0  0  0  0
   11.1258   -3.0038   19.2209 N   0  0  0  0  0  0  0  0  0  0  0  0
   10.7473   -3.6375   21.5462 C   0  0  0  0  0  0  0  0  0  0  0  0
    9.7333   -6.2276   18.9306 C   0  0  0  0  0  0  0  0  0  0  0  0
    9.3352   -6.2633   17.6284 C   0  0  0  0  0  0  0  0  0  0  0  0
  1 10  1  0
  1 11  1  0
  1 17  1  0
  1 29  1  0
  2  8  4  0
  2 23  4  0
  3 12  4  0
  3 28  4  0
  3 33  4  0
  4 13  4  0
  4 16  4  0
  4 18  4  0
  5  6  4  0
  5 15  4  0
  6 16  4  0
  6 17  1  0
  7 24  4  0
  7 27  4  0
  8 30  4  0
  9 20  1  0
  9 29  1  0
 10 16  1  0
 11 21  1  0
 12 25  4  0
 12 31  4  0
 13 15  4  0
 13 27  4  0
 14 25  4  0
 14 34  4  0
 18 24  4  0
 19 26  4  0
 19 30  4  0
 19 32  1  0
 20 21  1  0
 20 34  1  0
 22 31  4  0
 22 32  4  0
 23 26  4  0
 28 32  4  0
 33 34  4  0
M  END
$$$$

 Created by Python create_sdf_string function

 34 52  0  0  0  0  0  0  0  0999 V2000
    5.7736   -9.1472   16.7334 C   0  0  0  0  0  0  0  0  0  0  0  0
    9.8140   -2.5374   25.8442 C   0  0  0  0  0  0  0  0  0  0  0  0
   10.0912   -5.1582   19.8138 C   0  0  0  0  0  0  0  0  0  0  0  0
    3.4243  -11.1388   18.7009 C   0  0  0  0  0  0  0  0  0  0  0  0
    4.2343  -10.3477   17.8245 C   0  0  0  0  0  0  0  0  0  0  0  0
    0.1921  -10.5769   16.3230 N   0  0  0  0  0  0  0  0  0  0  0  0
   10.6173   -3.8346   25.3532 C   0  0  0  0  0  0  0  0  0  0  0  0
    6.7216   -6.7345   18.1310 C   0  0  0  0  0  0  0  0  0  0  0  0
    1.5671  -10.6305   17.7004 N   0  0  0  0  0  0  0  0  0  0  0  0
    9.8164   -6.0976   16.6056 C   0  0  0  0  0  0  0  0  0  0  0  0
    2.9197  -10.0674   16.7183 C   0  0  0  0  0  0  0  0  0  0  0  0
    5.9242   -9.8288   18.0907 Cl  0  0  0  0  0  0  0  0  0  0  0  0
    1.1370   -9.7635   15.3000 N   0  0  0  0  0  0  0  0  0  0  0  0
   10.8593   -3.2262   23.1060 F   0  0  0  0  0  0  0  0  0  0  0  0
    8.2871   -7.0394   17.3874 N   0  0  0  0  0  0  0  0  0  0  0  0
    8.1630   -8.3597   16.3047 C   0  0  0  0  0  0  0  0  0  0  0  0
   10.9046   -2.7834   20.6942 Br  0  0  0  0  0  0  0  0  0  0  0  0
    9.5442   -1.5090   24.6488 C   0  0  0  0  0  0  0  0  0  0  0  0
    0.0522  -10.3653   15.3369 C   0  0  0  0  0  0  0  0  0  0  0  0
   10.4392   -4.3391   17.3343 C   0  0  0  0  0  0  0  0  0  0  0  0
    9.8437   -1.8480   23.5099 C   0  0  0  0  0  0  0  0  0  0  0  0
   -0.1077  -11.2437   17.2509 C   0  0  0  0  0  0  0  0  0  0  0  0
    6.2525   -7.3471   17.6846 C   0  0  0  0  0  0  0  0  0  0  0  0
   10.6856   -3.9440   23.7557 C   0  0  0  0  0  0  0  0  0  0  0  0
   10.7611   -3.6104   21.5910 N   0  0  0  0  0  0  0  0  0  0  0  0
    9.5882   -6.7014   19.0022 C   0  0  0  0  0  0  0  0  0  0  0  0
    9.1577   -6.1010   17.1876 C   0  0  0  0  0  0  0  0  0  0  0  0
    2.1585   -9.7454   16.6371 He  0  0  0  0  0  0  0  0  0  0  0  0
    3.5074   -8.8454   16.2749 He  0  0  0  0  0  0  0  0  0  0  0  0
    6.2685   -8.6412   15.8142 He  0  0  0  0  0  0  0  0  0  0  0  0
   10.0400   -4.2213   18.5735 He  0  0  0  0  0  0  0  0  0  0  0  0
    1.6229  -11.0635   18.7532 He  0  0  0  0  0  0  0  0  0  0  0  0
   10.5665   -4.9482   21.1712 He  0  0  0  0  0  0  0  0  0  0  0  0
   11.1263   -2.9433   19.1964 He  0  0  0  0  0  0  0  0  0  0  0  0
  1  5  3  0
  1  8  2  0
  1 12  4  0
  1 18  3  0
  1 23  1  0
  1 26  1  0
  2  7  4  0
  2  9  4  0
  2 16  2  0
  2 18  4  0
  2 19  3  0
  3 26  4  0
  4  5  4  0
  4 10  4  0
  5 11  4  0
  5 12  1  0
  5 19  3  0
  5 22  4  0
  6  8  1  0
  7  8  3  0
  7 23  1  0
  7 24  4  0
  8 15  1  0
  8 16  2  0
  8 18  1  0
  8 23  1  0
  9 11  3  0
  9 15  4  0
  9 20  4  0
  9 22  1  0
 10 19  2  0
 10 20  4  0
 10 25  3  0
 11 12  2  0
 11 21  1  0
 11 23  1  0
 13 19  4  0
 13 23  3  0
 14 24  4  0
 14 25  1  0
 15 19  3  0
 15 27  1  0
 16 17  1  0
 16 19  3  0
 18 21  4  0
 18 26  3  0
 19 20  2  0
 19 27  2  0
 20 21  4  0
 21 24  2  0
 22 24  1  0
 22 26  2  0
M  END
$$$$

 Created by Python create_sdf_string function

 34 40  0  0  0  0  0  0  0  0999 V2000
    5.5568   -8.7346   16.8853 C   0  0  0  0  0  0  0  0  0  0  0  0
    9.8753   -2.5842   25.5865 C   0  0  0  0  0  0  0  0  0  0  0  0
   10.2020   -5.1587   19.5475 C   0  0  0  0  0  0  0  0  0  0  0  0
    2.0165  -10.0623   16.6815 C   0  0  0  0  0  0  0  0  0  0  0  0
    3.3672  -11.0278   18.8323 C   0  0  0  0  0  0  0  0  0  0  0  0
    4.0059  -10.2477   17.8984 C   0  0  0  0  0  0  0  0  0  0  0  0
   -0.4093  -10.8600   16.2353 N   0  0  0  0  0  0  0  0  0  0  0  0
   10.5121   -3.7949   25.2992 C   0  0  0  0  0  0  0  0  0  0  0  0
    6.8685   -6.9326   17.9734 C   0  0  0  0  0  0  0  0  0  0  0  0
    4.1430   -8.8413   16.1466 C   0  0  0  0  0  0  0  0  0  0  0  0
    6.7549   -8.8032   15.9604 C   0  0  0  0  0  0  0  0  0  0  0  0
   10.5709   -4.1736   18.6810 C   0  0  0  0  0  0  0  0  0  0  0  0
    1.3534  -10.8461   17.6526 C   0  0  0  0  0  0  0  0  0  0  0  0
    9.6685   -5.3867   16.7579 C   0  0  0  0  0  0  0  0  0  0  0  0
    2.0424  -11.3149   18.7430 N   0  0  0  0  0  0  0  0  0  0  0  0
    3.3290   -9.7266   16.9284 C   0  0  0  0  0  0  0  0  0  0  0  0
    5.5106   -9.9894   17.8790 C   0  0  0  0  0  0  0  0  0  0  0  0
    1.3940   -9.6574   15.4921 N   0  0  0  0  0  0  0  0  0  0  0  0
   10.5280   -3.2529   22.9158 C   0  0  0  0  0  0  0  0  0  0  0  0
    8.1285   -7.1726   17.2245 N   0  0  0  0  0  0  0  0  0  0  0  0
    8.0208   -8.1426   16.3987 C   0  0  0  0  0  0  0  0  0  0  0  0
   11.0498   -2.7865   20.5896 C   0  0  0  0  0  0  0  0  0  0  0  0
    9.6324   -1.6518   24.5591 C   0  0  0  0  0  0  0  0  0  0  0  0
    0.1858  -10.1470   15.2921 C   0  0  0  0  0  0  0  0  0  0  0  0
   10.3740   -4.3330   17.3000 C   0  0  0  0  0  0  0  0  0  0  0  0
   10.0114   -1.9711   23.2989 C   0  0  0  0  0  0  0  0  0  0  0  0
    0.0450  -11.1537   17.4043 C   0  0  0  0  0  0  0  0  0  0  0  0
   10.3856   -4.8864   21.0374 C   0  0  0  0  0  0  0  0  0  0  0  0
    5.8029   -7.4933   17.8544 C   0  0  0  0  0  0  0  0  0  0  0  0
   10.8177   -4.1107   23.9640 C   0  0  0  0  0  0  0  0  0  0  0  0
   11.0110   -2.9831   19.2414 N   0  0  0  0  0  0  0  0  0  0  0  0
   10.6633   -3.6498   21.5162 C   0  0  0  0  0  0  0  0  0  0  0  0
    9.5766   -6.2937   18.9495 C   0  0  0  0  0  0  0  0  0  0  0  0
    9.1690   -6.3433   17.6055 C   0  0  0  0  0  0  0  0  0  0  0  0
  1 10  1  0
  1 11  1  0
  1 17  1  0
  1 29  1  0
  2  8  4  0
  2 23  4  0
  3 12  4  0
  3 28  4  0
  3 33  4  0
  4 13  4  0
  4 16  4  0
  4 18  4  0
  5  6  4  0
  5 15  4  0
  6 16  4  0
  6 17  1  0
  7 24  4  0
  7 27  4  0
  8 30  4  0
  9 20  1  0
  9 29  1  0
 10 16  1  0
 11 21  1  0
 12 25  4  0
 12 31  4  0
 13 15  4  0
 13 27  4  0
 14 25  4  0
 14 34  4  0
 18 24  4  0
 19 26  4  0
 19 30  4  0
 19 32  1  0
 20 21  1  0
 20 34  1  0
 22 31  4  0
 22 32  4  0
 23 26  4  0
 28 32  4  0
 33 34  4  0
M  END
$$$$

 Created by Python create_sdf_string function

 34 96  0  0  0  0  0  0  0  0999 V2000
    5.0683   -8.3237   16.7983 C   0  0  0  0  0  0  0  0  0  0  0  0
    9.9930   -2.4590   25.3396 O   0  0  0  0  0  0  0  0  0  0  0  0
   10.0456   -4.9897   19.6566 C   0  0  0  0  0  0  0  0  0  0  0  0
    2.1126  -10.2236   16.3064 C   0  0  0  0  0  0  0  0  0  0  0  0
    3.1511  -11.1196   18.9897 C   0  0  0  0  0  0  0  0  0  0  0  0
    3.7786  -10.1520   17.8897 C   0  0  0  0  0  0  0  0  0  0  0  0
   -0.6391  -11.0898   15.5807 N   0  0  0  0  0  0  0  0  0  0  0  0
   10.3295   -3.6174   25.5108 C   0  0  0  0  0  0  0  0  0  0  0  0
    6.5138   -7.1825   17.6251 N   0  0  0  0  0  0  0  0  0  0  0  0
    3.9936   -8.6349   16.5592 C   0  0  0  0  0  0  0  0  0  0  0  0
    7.1058   -8.8324   15.1964 Br  0  0  0  0  0  0  0  0  0  0  0  0
   10.6299   -3.8505   18.9759 C   0  0  0  0  0  0  0  0  0  0  0  0
    1.6092  -11.3537   17.8906 C   0  0  0  0  0  0  0  0  0  0  0  0
    9.3024   -4.8988   16.3750 C   0  0  0  0  0  0  0  0  0  0  0  0
    2.0578  -11.4642   18.2697 C   0  0  0  0  0  0  0  0  0  0  0  0
    3.2888  -10.6068   16.8524 C   0  0  0  0  0  0  0  0  0  0  0  0
    5.2755   -9.5192   17.8194 C   0  0  0  0  0  0  0  0  0  0  0  0
    1.4202   -9.7080   15.6782 N   0  0  0  0  0  0  0  0  0  0  0  0
   10.2527   -3.5416   22.8410 C   0  0  0  0  0  0  0  0  0  0  0  0
    7.9019   -6.8738   17.0598 N   0  0  0  0  0  0  0  0  0  0  0  0
    8.5049   -8.2655   16.1758 C   0  0  0  0  0  0  0  0  0  0  0  0
   11.0513   -2.7712   20.9186 C   0  0  0  0  0  0  0  0  0  0  0  0
    9.4727   -1.4253   24.7269 C   0  0  0  0  0  0  0  0  0  0  0  0
   -0.0624  -10.4785   15.1903 C   0  0  0  0  0  0  0  0  0  0  0  0
   10.2496   -4.5436   17.2293 C   0  0  0  0  0  0  0  0  0  0  0  0
   10.0829   -1.9535   23.0717 C   0  0  0  0  0  0  0  0  0  0  0  0
   -0.1961  -11.2113   17.2782 C   0  0  0  0  0  0  0  0  0  0  0  0
   10.5903   -4.6167   20.9595 C   0  0  0  0  0  0  0  0  0  0  0  0
    6.0743   -7.7278   17.4123 C   0  0  0  0  0  0  0  0  0  0  0  0
   10.7363   -4.3539   23.6608 C   0  0  0  0  0  0  0  0  0  0  0  0
   11.0905   -3.2252   19.2177 N   0  0  0  0  0  0  0  0  0  0  0  0
   10.6532   -3.5796   21.4750 C   0  0  0  0  0  0  0  0  0  0  0  0
    9.7666   -6.3046   18.7374 C   0  0  0  0  0  0  0  0  0  0  0  0
    8.9970   -5.5646   17.9123 C   0  0  0  0  0  0  0  0  0  0  0  0
  1 10  1  0
  1 14  4  0
  1 17  2  0
  1 18  4  0
  1 29  1  0
  1 33  3  0
  2  4  2  0
  2  5  4  0
  2  8  4  0
  2 12  4  0
  2 14  4  0
  2 26  4  0
  2 31  3  0
  2 33  3  0
  3  8  3  0
  3 12  4  0
  3 24  3  0
  3 28  4  0
  3 33  4  0
  4  8  1  0
  4 13  1  0
  4 16  4  0
  4 18  4  0
  5  6  4  0
  5 12  3  0
  5 15  4  0
  6 10  2  0
  6 11  1  0
  6 16  4  0
  6 17  1  0
  6 30  2  0
  7 11  4  0
  7 18  4  0
  7 24  4  0
  7 27  1  0
  8 12  2  0
  8 16  4  0
  8 17  4  0
  8 21  2  0
  8 23  4  0
  8 26  2  0
  9 13  3  0
  9 16  2  0
  9 19  3  0
  9 22  2  0
 10 16  1  0
 10 17  3  0
 10 24  1  0
 10 32  1  0
 11 16  1  0
 11 20  4  0
 11 21  1  0
 11 26  4  0
 11 28  1  0
 12 20  2  0
 12 22  2  0
 12 25  4  0
 12 27  2  0
 13 15  4  0
 13 17  1  0
 13 20  4  0
 13 26  2  0
 13 27  4  0
 13 28  4  0
 13 31  3  0
 14 22  3  0
 14 28  1  0
 14 31  1  0
 14 34  1  0
 15 16  1  0
 15 20  4  0
 15 22  3  0
 16 32  1  0
 17 20  1  0
 17 21  4  0
 17 23  3  0
 17 32  3  0
 18 24  4  0
 18 29  3  0
 19 26  4  0
 19 30  4  0
 19 32  1  0
 20 21  1  0
 20 33  2  0
 20 34  1  0
 22 24  1  0
 22 31  4  0
 22 32  4  0
 22 33  2  0
 23 26  4  0
 24 27  2  0
 24 30  3  0
 24 33  1  0
 28 32  4  0
 31 34  2  0
 33 34  4  0
M  END
$$$$

 Created by Python create_sdf_string function

 34 40  0  0  0  0  0  0  0  0999 V2000
    5.1338   -8.6777   17.0460 C   0  0  0  0  0  0  0  0  0  0  0  0
    9.9064   -2.5551   25.4739 C   0  0  0  0  0  0  0  0  0  0  0  0
   10.1223   -5.0332   19.4712 C   0  0  0  0  0  0  0  0  0  0  0  0
    1.8796  -10.1759   16.6203 C   0  0  0  0  0  0  0  0  0  0  0  0
    3.2021  -11.2594   18.8580 C   0  0  0  0  0  0  0  0  0  0  0  0
    3.8032  -10.3209   18.0019 C   0  0  0  0  0  0  0  0  0  0  0  0
   -0.5930  -11.0273   16.0184 N   0  0  0  0  0  0  0  0  0  0  0  0
   10.4181   -3.7720   25.2200 C   0  0  0  0  0  0  0  0  0  0  0  0
    6.7759   -7.0372   17.7455 C   0  0  0  0  0  0  0  0  0  0  0  0
    3.9272   -8.7873   16.2535 C   0  0  0  0  0  0  0  0  0  0  0  0
    7.1821   -8.6108   15.5902 C   0  0  0  0  0  0  0  0  0  0  0  0
   10.5572   -4.0088   18.6623 C   0  0  0  0  0  0  0  0  0  0  0  0
    1.2180  -11.0814   17.5176 C   0  0  0  0  0  0  0  0  0  0  0  0
    9.5415   -4.9772   16.7175 C   0  0  0  0  0  0  0  0  0  0  0  0
    1.9136  -11.5798   18.6330 C   0  0  0  0  0  0  0  0  0  0  0  0
    3.0968   -9.7654   16.9608 C   0  0  0  0  0  0  0  0  0  0  0  0
    5.1026   -9.6806   18.0238 C   0  0  0  0  0  0  0  0  0  0  0  0
    1.2886   -9.8000   15.4375 N   0  0  0  0  0  0  0  0  0  0  0  0
   10.4892   -3.2805   22.8551 C   0  0  0  0  0  0  0  0  0  0  0  0
    8.0751   -6.8754   17.1120 C   0  0  0  0  0  0  0  0  0  0  0  0
    8.3510   -8.0414   16.2343 C   0  0  0  0  0  0  0  0  0  0  0  0
   11.1760   -2.7676   20.5425 C   0  0  0  0  0  0  0  0  0  0  0  0
    9.6933   -1.6377   24.4808 C   0  0  0  0  0  0  0  0  0  0  0  0
    0.1030  -10.2582   15.1443 C   0  0  0  0  0  0  0  0  0  0  0  0
   10.2871   -4.0294   17.2785 C   0  0  0  0  0  0  0  0  0  0  0  0
   10.0325   -1.9830   23.2097 C   0  0  0  0  0  0  0  0  0  0  0  0
   -0.0431  -11.4969   17.1166 C   0  0  0  0  0  0  0  0  0  0  0  0
   10.3090   -4.8526   20.9428 C   0  0  0  0  0  0  0  0  0  0  0  0
    5.9588   -7.8742   16.9423 C   0  0  0  0  0  0  0  0  0  0  0  0
   10.6998   -4.1673   23.9021 C   0  0  0  0  0  0  0  0  0  0  0  0
   11.1429   -2.9023   19.1894 N   0  0  0  0  0  0  0  0  0  0  0  0
   10.7008   -3.6348   21.4708 C   0  0  0  0  0  0  0  0  0  0  0  0
    9.4164   -6.0786   18.8688 C   0  0  0  0  0  0  0  0  0  0  0  0
    9.0231   -6.0230   17.5658 C   0  0  0  0  0  0  0  0  0  0  0  0
  1 10  1  0
  1 17  2  0
  1 29  1  0
  2  8  4  0
  2 23  4  0
  3 12  4  0
  3 28  4  0
  3 33  4  0
  4 13  4  0
  4 16  4  0
  4 18  4  0
  5  6  4  0
  5 15  4  0
  6 16  4  0
  6 17  1  0
  7 24  4  0
  7 27  4  0
  8 30  4  0
  9 20  1  0
  9 29  1  0
 10 16  1  0
 11 21  1  0
 11 29  1  0
 12 25  4  0
 12 31  4  0
 13 15  4  0
 13 27  4  0
 14 25  4  0
 14 34  4  0
 18 24  4  0
 19 26  4  0
 19 30  4  0
 19 32  1  0
 20 21  1  0
 20 34  1  0
 22 31  4  0
 22 32  4  0
 23 26  4  0
 28 32  4  0
 33 34  4  0
M  END
$$$$

 Created by Python create_sdf_string function

 34 64  0  0  0  0  0  0  0  0999 V2000
    5.5626   -8.4871   16.9827 C   0  0  0  0  0  0  0  0  0  0  0  0
    9.6333   -2.6133   25.5051 C   0  0  0  0  0  0  0  0  0  0  0  0
   10.0544   -4.9583   19.5284 C   0  0  0  0  0  0  0  0  0  0  0  0
    1.6698   -9.7334   16.7122 C   0  0  0  0  0  0  0  0  0  0  0  0
    3.0155  -11.4086   18.7695 C   0  0  0  0  0  0  0  0  0  0  0  0
    3.7517  -10.3344   17.8843 C   0  0  0  0  0  0  0  0  0  0  0  0
   -1.0399  -11.1664   15.7599 N   0  0  0  0  0  0  0  0  0  0  0  0
   10.3231   -3.8459   24.9804 C   0  0  0  0  0  0  0  0  0  0  0  0
    3.6447   -8.7962   16.3273 C   0  0  0  0  0  0  0  0  0  0  0  0
   11.0573   -3.3421   18.1920 C   0  0  0  0  0  0  0  0  0  0  0  0
    0.5869  -11.2162   17.3455 C   0  0  0  0  0  0  0  0  0  0  0  0
   10.0068   -4.8928   16.5793 C   0  0  0  0  0  0  0  0  0  0  0  0
    1.3020  -11.5895   18.2315 C   0  0  0  0  0  0  0  0  0  0  0  0
    1.4468   -9.7876   15.2353 O   0  0  0  0  0  0  0  0  0  0  0  0
   10.5818   -3.2844   22.6659 Se  0  0  0  0  0  0  0  0  0  0  0  0
    8.0959   -6.9380   16.8752 C   0  0  0  0  0  0  0  0  0  0  0  0
    7.8112   -8.1194   16.2723 F   0  0  0  0  0  0  0  0  0  0  0  0
   11.3559   -2.8136   20.5706 C   0  0  0  0  0  0  0  0  0  0  0  0
    9.6656   -1.6056   24.2539 C   0  0  0  0  0  0  0  0  0  0  0  0
    0.0465  -10.2954   15.5775 F   0  0  0  0  0  0  0  0  0  0  0  0
   10.2834   -4.1706   17.1622 C   0  0  0  0  0  0  0  0  0  0  0  0
   10.0536   -1.6392   23.2895 O   0  0  0  0  0  0  0  0  0  0  0  0
    0.0129  -11.3465   17.0782 C   0  0  0  0  0  0  0  0  0  0  0  0
   10.2479   -4.7503   21.1482 C   0  0  0  0  0  0  0  0  0  0  0  0
    5.8856   -7.7143   16.8900 C   0  0  0  0  0  0  0  0  0  0  0  0
   11.3715   -2.7779   19.5011 N   0  0  0  0  0  0  0  0  0  0  0  0
   10.6451   -3.6071   21.2933 C   0  0  0  0  0  0  0  0  0  0  0  0
    9.2429   -5.8053   19.0056 C   0  0  0  0  0  0  0  0  0  0  0  0
    9.1431   -5.4940   17.4751 C   0  0  0  0  0  0  0  0  0  0  0  0
    6.8232   -7.3959   17.5719 He  0  0  0  0  0  0  0  0  0  0  0  0
    7.8479   -8.6309   15.5545 He  0  0  0  0  0  0  0  0  0  0  0  0
    2.3749   -9.1425   16.7477 He  0  0  0  0  0  0  0  0  0  0  0  0
    5.3306   -9.8658   18.3429 He  0  0  0  0  0  0  0  0  0  0  0  0
   10.5893   -3.9654   23.9106 He  0  0  0  0  0  0  0  0  0  0  0  0
  1  2  4  0
  1  6  4  0
  1  9  3  0
  1 14  4  0
  1 20  1  0
  1 21  1  0
  1 25  1  0
  2  7  3  0
  2  8  4  0
  2 10  2  0
  2 19  4  0
  2 22  1  0
  2 28  1  0
  3  4  4  0
  3  5  1  0
  3  6  3  0
  3 10  4  0
  3 20  1  0
  3 24  4  0
  3 28  4  0
  3 29  3  0
  4  8  1  0
  4 12  3  0
  4 14  4  0
  4 16  1  0
  4 19  3  0
  4 29  4  0
  5  6  4  0
  5 13  1  0
  6 13  4  0
  6 19  1  0
  7 18  2  0
  7 25  2  0
  7 26  1  0
  9 10  2  0
  9 11  3  0
  9 15  1  0
 10 21  4  0
 10 23  2  0
 10 26  4  0
 11 13  2  0
 11 19  1  0
 11 23  1  0
 11 27  2  0
 11 28  2  0
 12 17  2  0
 12 21  4  0
 12 29  4  0
 13 14  1  0
 13 23  4  0
 14 17  4  0
 14 20  4  0
 15 22  4  0
 15 27  1  0
 16 17  1  0
 17 22  3  0
 17 29  1  0
 18 26  4  0
 18 27  4  0
 19 21  2  0
 21 23  4  0
 21 29  2  0
 24 27  4  0
 28 29  4  0
M  END
$$$$

 Created by Python create_sdf_string function

 34 40  0  0  0  0  0  0  0  0999 V2000
    5.0430   -8.6744   17.1017 C   0  0  0  0  0  0  0  0  0  0  0  0
    9.7300   -2.5529   25.4055 C   0  0  0  0  0  0  0  0  0  0  0  0
   10.0796   -4.7830   19.4049 C   0  0  0  0  0  0  0  0  0  0  0  0
    1.6860  -10.1190   16.6340 C   0  0  0  0  0  0  0  0  0  0  0  0
    2.9122  -11.2005   18.8882 C   0  0  0  0  0  0  0  0  0  0  0  0
    3.5599  -10.3141   18.1035 C   0  0  0  0  0  0  0  0  0  0  0  0
   -0.7913  -11.0857   15.8578 N   0  0  0  0  0  0  0  0  0  0  0  0
   10.2690   -3.7889   25.1222 C   0  0  0  0  0  0  0  0  0  0  0  0
    6.9329   -7.1479   17.5997 C   0  0  0  0  0  0  0  0  0  0  0  0
    3.7196   -8.7173   16.4504 N   0  0  0  0  0  0  0  0  0  0  0  0
    7.4707   -8.6438   15.6057 C   0  0  0  0  0  0  0  0  0  0  0  0
   10.6887   -3.8062   18.5898 C   0  0  0  0  0  0  0  0  0  0  0  0
    1.0109  -11.0375   17.4091 C   0  0  0  0  0  0  0  0  0  0  0  0
    9.7436   -4.8971   16.6592 C   0  0  0  0  0  0  0  0  0  0  0  0
    1.5729  -11.5114   18.5048 C   0  0  0  0  0  0  0  0  0  0  0  0
    2.9263   -9.7289   17.0368 C   0  0  0  0  0  0  0  0  0  0  0  0
    5.0930   -9.6100   18.0618 O   0  0  0  0  0  0  0  0  0  0  0  0
    1.0844   -9.6407   15.4801 C   0  0  0  0  0  0  0  0  0  0  0  0
   10.5137   -3.1767   22.8263 C   0  0  0  0  0  0  0  0  0  0  0  0
    8.1608   -6.8261   16.8561 C   0  0  0  0  0  0  0  0  0  0  0  0
    8.5069   -8.0848   16.2159 C   0  0  0  0  0  0  0  0  0  0  0  0
   11.3292   -2.6592   20.5232 C   0  0  0  0  0  0  0  0  0  0  0  0
    9.6529   -1.6012   24.4334 C   0  0  0  0  0  0  0  0  0  0  0  0
   -0.0773  -10.2397   15.1078 C   0  0  0  0  0  0  0  0  0  0  0  0
   10.5305   -3.9293   17.1991 C   0  0  0  0  0  0  0  0  0  0  0  0
   10.0775   -1.8818   23.1963 C   0  0  0  0  0  0  0  0  0  0  0  0
   -0.1662  -11.4778   17.1292 C   0  0  0  0  0  0  0  0  0  0  0  0
   10.2471   -4.6510   20.8239 C   0  0  0  0  0  0  0  0  0  0  0  0
    6.0244   -7.8296   16.7519 N   0  0  0  0  0  0  0  0  0  0  0  0
   10.6553   -4.1144   23.8446 C   0  0  0  0  0  0  0  0  0  0  0  0
   11.3241   -2.7820   19.1654 N   0  0  0  0  0  0  0  0  0  0  0  0
   10.7335   -3.5061   21.4374 C   0  0  0  0  0  0  0  0  0  0  0  0
    9.3326   -5.7799   18.7643 C   0  0  0  0  0  0  0  0  0  0  0  0
    9.1279   -5.8085   17.4614 C   0  0  0  0  0  0  0  0  0  0  0  0
  1 10  1  0
  1 17  2  0
  1 29  1  0
  2  8  4  0
  2 23  4  0
  3 12  4  0
  3 28  4  0
  3 33  4  0
  4 13  4  0
  4 16  4  0
  4 18  4  0
  5  6  4  0
  5 15  4  0
  6 16  4  0
  6 17  1  0
  7 24  4  0
  7 27  4  0
  8 30  4  0
  9 20  1  0
  9 29  1  0
 10 16  1  0
 11 21  1  0
 11 29  1  0
 12 25  4  0
 12 31  4  0
 13 15  4  0
 13 27  4  0
 14 25  4  0
 14 34  4  0
 18 24  4  0
 19 26  4  0
 19 30  4  0
 19 32  1  0
 20 21  1  0
 20 34  1  0
 22 31  4  0
 22 32  4  0
 23 26  4  0
 28 32  4  0
 33 34  4  0
M  END
$$$$

 Created by Python create_sdf_string function

 34 68  0  0  0  0  0  0  0  0999 V2000
    5.3703   -8.7343   16.3894 C   0  0  0  0  0  0  0  0  0  0  0  0
    9.6518   -2.3903   25.7554 C   0  0  0  0  0  0  0  0  0  0  0  0
   10.1674   -4.7121   19.5184 C   0  0  0  0  0  0  0  0  0  0  0  0
    1.7790   -9.5698   16.7096 C   0  0  0  0  0  0  0  0  0  0  0  0
    3.0542  -11.1845   19.0720 C   0  0  0  0  0  0  0  0  0  0  0  0
    3.3832  -10.4413   18.1742 C   0  0  0  0  0  0  0  0  0  0  0  0
   -1.1504  -10.7582   15.7556 Cl  0  0  0  0  0  0  0  0  0  0  0  0
   10.4338   -3.6673   25.1386 F   0  0  0  0  0  0  0  0  0  0  0  0
    3.8942   -8.5696   16.8934 N   0  0  0  0  0  0  0  0  0  0  0  0
    7.3586   -7.8827   16.0618 C   0  0  0  0  0  0  0  0  0  0  0  0
   10.7306   -3.6321   18.2273 C   0  0  0  0  0  0  0  0  0  0  0  0
   10.0566   -5.0042   16.9069 N   0  0  0  0  0  0  0  0  0  0  0  0
    1.7350  -11.4721   18.4869 C   0  0  0  0  0  0  0  0  0  0  0  0
    2.7599   -9.2350   17.4115 C   0  0  0  0  0  0  0  0  0  0  0  0
    1.0697   -9.7742   15.5342 C   0  0  0  0  0  0  0  0  0  0  0  0
   10.6182   -3.0130   22.8917 C   0  0  0  0  0  0  0  0  0  0  0  0
    8.2910   -6.7925   16.7069 C   0  0  0  0  0  0  0  0  0  0  0  0
    8.4394   -7.9640   15.8886 C   0  0  0  0  0  0  0  0  0  0  0  0
   11.6100   -2.4653   20.5413 C   0  0  0  0  0  0  0  0  0  0  0  0
    9.5977   -1.5019   24.7455 C   0  0  0  0  0  0  0  0  0  0  0  0
   10.3144   -4.1002   17.0587 C   0  0  0  0  0  0  0  0  0  0  0  0
   -0.3025  -11.4281   16.9142 C   0  0  0  0  0  0  0  0  0  0  0  0
   10.0912   -4.8925   20.5021 C   0  0  0  0  0  0  0  0  0  0  0  0
    6.1197   -7.8617   16.8899 N   0  0  0  0  0  0  0  0  0  0  0  0
   10.3409   -4.1192   23.7178 C   0  0  0  0  0  0  0  0  0  0  0  0
   11.3366   -2.5774   19.0323 N   0  0  0  0  0  0  0  0  0  0  0  0
   10.5181   -3.4955   21.3261 C   0  0  0  0  0  0  0  0  0  0  0  0
    9.2386   -5.6064   18.9084 C   0  0  0  0  0  0  0  0  0  0  0  0
    9.0643   -5.9701   17.7304 C   0  0  0  0  0  0  0  0  0  0  0  0
    6.6984   -7.2634   17.6753 He  0  0  0  0  0  0  0  0  0  0  0  0
    1.2726  -10.7916   16.8173 He  0  0  0  0  0  0  0  0  0  0  0  0
    5.1697   -9.5687   18.1060 He  0  0  0  0  0  0  0  0  0  0  0  0
    0.0162  -11.0254   15.0911 He  0  0  0  0  0  0  0  0  0  0  0  0
   10.0733   -1.6752   23.2549 He  0  0  0  0  0  0  0  0  0  0  0  0
  1 28  4  0
  2  4  3  0
  2  8  4  0
  2 12  2  0
  2 15  4  0
  2 19  2  0
  2 20  4  0
  3  5  2  0
  3  8  4  0
  3 11  4  0
  3 12  1  0
  3 14  2  0
  3 23  4  0
  3 27  3  0
  3 28  4  0
  4  5  1  0
  4 14  4  0
  4 15  4  0
  5  6  4  0
  5  7  1  0
  5  9  2  0
  5 11  1  0
  5 28  1  0
  6 10  2  0
  6 14  4  0
  6 26  2  0
  7 10  2  0
  7 13  3  0
  7 18  1  0
  7 20  2  0
  7 22  4  0
  7 23  4  0
  7 29  2  0
  8 14  2  0
  8 20  2  0
  8 25  4  0
  9 14  1  0
  9 26  1  0
 10 12  3  0
 10 18  1  0
 10 22  3  0
 10 24  1  0
 10 25  3  0
 11 12  3  0
 11 24  2  0
 11 26  1  0
 11 29  4  0
 12 21  4  0
 12 23  1  0
 12 29  4  0
 13 27  3  0
 14 15  1  0
 14 19  2  0
 15 24  1  0
 15 25  3  0
 16 19  2  0
 16 27  1  0
 17 29  4  0
 18 27  4  0
 19 26  4  0
 19 27  4  0
 21 29  2  0
 22 25  1  0
 22 26  4  0
 23 27  4  0
 25 29  1  0
 27 29  2  0
 28 29  4  0
M  END
$$$$

 Created by Python create_sdf_string function

 34 40  0  0  0  0  0  0  0  0999 V2000
    5.1423   -8.6777   17.0533 C   0  0  0  0  0  0  0  0  0  0  0  0
    9.8065   -2.4894   25.4814 C   0  0  0  0  0  0  0  0  0  0  0  0
   10.0207   -4.7152   19.3787 C   0  0  0  0  0  0  0  0  0  0  0  0
    1.7579  -10.0461   16.6160 C   0  0  0  0  0  0  0  0  0  0  0  0
    2.9955  -11.0711   18.8610 C   0  0  0  0  0  0  0  0  0  0  0  0
    3.6434  -10.1942   18.0557 C   0  0  0  0  0  0  0  0  0  0  0  0
   -0.7072  -11.1775   15.8119 C   0  0  0  0  0  0  0  0  0  0  0  0
   10.2539   -3.7520   25.1347 C   0  0  0  0  0  0  0  0  0  0  0  0
    6.9345   -7.1146   17.6245 C   0  0  0  0  0  0  0  0  0  0  0  0
    3.8928   -8.5582   16.4637 N   0  0  0  0  0  0  0  0  0  0  0  0
    7.1083   -8.3997   15.6506 C   0  0  0  0  0  0  0  0  0  0  0  0
   10.6592   -3.7601   18.5858 C   0  0  0  0  0  0  0  0  0  0  0  0
    1.0169  -10.9633   17.4229 C   0  0  0  0  0  0  0  0  0  0  0  0
    9.8095   -5.0139   16.6700 N   0  0  0  0  0  0  0  0  0  0  0  0
    1.7209  -11.4440   18.5598 C   0  0  0  0  0  0  0  0  0  0  0  0
    3.0143   -9.5879   17.0338 C   0  0  0  0  0  0  0  0  0  0  0  0
    5.0744   -9.6532   18.0415 N   0  0  0  0  0  0  0  0  0  0  0  0
    1.0927   -9.7084   15.4115 C   0  0  0  0  0  0  0  0  0  0  0  0
   10.4700   -3.0820   22.8029 C   0  0  0  0  0  0  0  0  0  0  0  0
    8.2560   -6.8247   16.9925 C   0  0  0  0  0  0  0  0  0  0  0  0
    8.4434   -7.7088   15.8918 C   0  0  0  0  0  0  0  0  0  0  0  0
   11.2914   -2.5098   20.4743 C   0  0  0  0  0  0  0  0  0  0  0  0
    9.6983   -1.4872   24.5051 C   0  0  0  0  0  0  0  0  0  0  0  0
   -0.0576  -10.3087   15.0315 C   0  0  0  0  0  0  0  0  0  0  0  0
   10.5525   -3.9967   17.1775 C   0  0  0  0  0  0  0  0  0  0  0  0
   10.0601   -1.7833   23.2237 C   0  0  0  0  0  0  0  0  0  0  0  0
   -0.2052  -11.4057   17.0629 C   0  0  0  0  0  0  0  0  0  0  0  0
   10.1688   -4.5478   20.7936 C   0  0  0  0  0  0  0  0  0  0  0  0
    6.2044   -8.0045   16.7162 N   0  0  0  0  0  0  0  0  0  0  0  0
   10.5948   -4.0473   23.8282 C   0  0  0  0  0  0  0  0  0  0  0  0
   11.2939   -2.6768   19.1021 N   0  0  0  0  0  0  0  0  0  0  0  0
   10.6790   -3.3737   21.3789 C   0  0  0  0  0  0  0  0  0  0  0  0
    9.3017   -5.7205   18.8436 C   0  0  0  0  0  0  0  0  0  0  0  0
    9.1238   -5.8651   17.4978 C   0  0  0  0  0  0  0  0  0  0  0  0
  1 10  1  0
  1 17  2  0
  1 29  1  0
  2  8  4  0
  2 23  4  0
  3 12  4  0
  3 28  4  0
  3 33  4  0
  4 13  4  0
  4 16  4  0
  4 18  4  0
  5  6  4  0
  5 15  4  0
  6 16  4  0
  6 17  1  0
  7 24  4  0
  7 27  4  0
  8 30  4  0
  9 20  1  0
  9 29  1  0
 10 16  1  0
 11 21  1  0
 11 29  1  0
 12 25  4  0
 12 31  4  0
 13 15  4  0
 13 27  4  0
 14 25  4  0
 14 34  4  0
 18 24  4  0
 19 26  4  0
 19 30  4  0
 19 32  1  0
 20 21  1  0
 20 34  1  0
 22 31  4  0
 22 32  4  0
 23 26  4  0
 28 32  4  0
 33 34  4  0
M  END
$$$$

 Created by Python create_sdf_string function

 34 46  0  0  0  0  0  0  0  0999 V2000
    9.7356   -2.5536   25.6681 C   0  0  0  0  0  0  0  0  0  0  0  0
   10.0870   -4.6060   19.3077 C   0  0  0  0  0  0  0  0  0  0  0  0
    3.1782  -11.1037   18.7763 C   0  0  0  0  0  0  0  0  0  0  0  0
    3.5364  -10.1897   17.8909 C   0  0  0  0  0  0  0  0  0  0  0  0
   -0.6740  -11.4608   15.8562 C   0  0  0  0  0  0  0  0  0  0  0  0
   10.0441   -3.7406   25.2810 C   0  0  0  0  0  0  0  0  0  0  0  0
    4.2212   -8.3662   16.1558 N   0  0  0  0  0  0  0  0  0  0  0  0
   10.4379   -3.3653   18.9378 C   0  0  0  0  0  0  0  0  0  0  0  0
    0.0701  -10.7050   17.9610 C   0  0  0  0  0  0  0  0  0  0  0  0
    1.1743  -11.6044   18.2604 C   0  0  0  0  0  0  0  0  0  0  0  0
    5.3003   -9.8044   17.5447 N   0  0  0  0  0  0  0  0  0  0  0  0
    1.0641   -9.8525   15.4928 C   0  0  0  0  0  0  0  0  0  0  0  0
   10.5346   -3.0277   22.8467 C   0  0  0  0  0  0  0  0  0  0  0  0
    8.2292   -6.7462   17.1712 C   0  0  0  0  0  0  0  0  0  0  0  0
   11.2891   -2.6328   20.1397 C   0  0  0  0  0  0  0  0  0  0  0  0
    9.3518   -1.2229   24.5767 C   0  0  0  0  0  0  0  0  0  0  0  0
   -0.2063  -10.5138   14.5556 C   0  0  0  0  0  0  0  0  0  0  0  0
   10.6689   -3.9672   17.2709 C   0  0  0  0  0  0  0  0  0  0  0  0
    9.6514   -1.7383   23.1191 C   0  0  0  0  0  0  0  0  0  0  0  0
   -0.0950  -11.0576   16.7766 C   0  0  0  0  0  0  0  0  0  0  0  0
   10.1603   -4.5910   20.5547 C   0  0  0  0  0  0  0  0  0  0  0  0
    6.2395   -8.0051   16.5148 N   0  0  0  0  0  0  0  0  0  0  0  0
   10.6642   -3.8565   23.8343 C   0  0  0  0  0  0  0  0  0  0  0  0
   11.3444   -2.8727   18.9673 N   0  0  0  0  0  0  0  0  0  0  0  0
   10.7537   -3.0653   21.1868 C   0  0  0  0  0  0  0  0  0  0  0  0
    9.4842   -6.4249   19.1629 Cl  0  0  0  0  0  0  0  0  0  0  0  0
    8.8725   -6.0168   17.5815 C   0  0  0  0  0  0  0  0  0  0  0  0
    5.3442   -9.0034   16.6210 He  0  0  0  0  0  0  0  0  0  0  0  0
    1.3129   -9.8054   16.0694 He  0  0  0  0  0  0  0  0  0  0  0  0
    7.3198   -6.7642   17.4614 He  0  0  0  0  0  0  0  0  0  0  0  0
    7.7306   -8.8687   15.6397 He  0  0  0  0  0  0  0  0  0  0  0  0
    9.4447   -4.9708   16.3794 He  0  0  0  0  0  0  0  0  0  0  0  0
    3.3866   -9.8131   17.0319 He  0  0  0  0  0  0  0  0  0  0  0  0
    8.5472   -7.2290   15.6659 He  0  0  0  0  0  0  0  0  0  0  0  0
  1  6  4  0
  1 16  4  0
  1 20  1  0
  2  3  1  0
  2  8  4  0
  2 20  2  0
  2 21  4  0
  2 26  1  0
  3  4  4  0
  3  8  4  0
  3 10  2  0
  4 11  1  0
  5 11  4  0
  5 16  3  0
  5 17  4  0
  5 22  1  0
  6 23  4  0
  7 10  3  0
  7 15  4  0
  7 25  1  0
  8  9  4  0
  8 18  4  0
  8 24  4  0
  8 27  1  0
  9 10  3  0
  9 20  4  0
 10 20  4  0
 10 24  2  0
 11 12  1  0
 11 13  4  0
 12 17  4  0
 12 27  1  0
 13 18  3  0
 13 21  1  0
 13 23  4  0
 13 25  1  0
 14 27  1  0
 15 24  4  0
 15 25  4  0
 16 23  1  0
 17 20  2  0
 19 26  4  0
 20 22  1  0
 20 23  1  0
 21 25  4  0
 26 27  4  0
M  END
$$$$

 Created by Python create_sdf_string function

 34 40  0  0  0  0  0  0  0  0999 V2000
    5.2345   -8.8392   16.8137 C   0  0  0  0  0  0  0  0  0  0  0  0
    9.6737   -2.4978   25.4834 C   0  0  0  0  0  0  0  0  0  0  0  0
   10.0894   -4.7356   19.4051 C   0  0  0  0  0  0  0  0  0  0  0  0
    1.7384  -10.0864   16.5095 C   0  0  0  0  0  0  0  0  0  0  0  0
    3.0532  -11.0418   18.7667 C   0  0  0  0  0  0  0  0  0  0  0  0
    3.7066  -10.1925   17.8140 C   0  0  0  0  0  0  0  0  0  0  0  0
   -0.7108  -11.1712   15.7258 C   0  0  0  0  0  0  0  0  0  0  0  0
   10.2827   -3.6985   25.1183 C   0  0  0  0  0  0  0  0  0  0  0  0
    6.9076   -7.1718   17.4905 C   0  0  0  0  0  0  0  0  0  0  0  0
    3.9880   -8.6903   16.1870 N   0  0  0  0  0  0  0  0  0  0  0  0
    7.3921   -8.5995   15.6842 C   0  0  0  0  0  0  0  0  0  0  0  0
   10.6319   -3.7414   18.5930 C   0  0  0  0  0  0  0  0  0  0  0  0
    0.9843  -10.9266   17.4044 C   0  0  0  0  0  0  0  0  0  0  0  0
    9.6972   -4.8972   16.6647 C   0  0  0  0  0  0  0  0  0  0  0  0
    1.7440  -11.2701   18.5929 C   0  0  0  0  0  0  0  0  0  0  0  0
    3.0329   -9.6283   16.8314 C   0  0  0  0  0  0  0  0  0  0  0  0
    5.1253   -9.7440   17.7436 N   0  0  0  0  0  0  0  0  0  0  0  0
    1.1117   -9.7690   15.2916 C   0  0  0  0  0  0  0  0  0  0  0  0
   10.4103   -3.0230   22.7935 C   0  0  0  0  0  0  0  0  0  0  0  0
    8.2370   -6.8806   17.0315 C   0  0  0  0  0  0  0  0  0  0  0  0
    8.4513   -7.5159   15.7308 C   0  0  0  0  0  0  0  0  0  0  0  0
   11.2651   -2.5107   20.4656 C   0  0  0  0  0  0  0  0  0  0  0  0
    9.5019   -1.4913   24.4945 C   0  0  0  0  0  0  0  0  0  0  0  0
   -0.0161  -10.3924   14.8355 C   0  0  0  0  0  0  0  0  0  0  0  0
   10.3982   -3.8673   17.1976 C   0  0  0  0  0  0  0  0  0  0  0  0
    9.9418   -1.7370   23.1955 C   0  0  0  0  0  0  0  0  0  0  0  0
   -0.1672  -11.3454   17.0458 C   0  0  0  0  0  0  0  0  0  0  0  0
   10.1872   -4.5246   20.8151 C   0  0  0  0  0  0  0  0  0  0  0  0
    6.3502   -8.1558   16.5423 N   0  0  0  0  0  0  0  0  0  0  0  0
   10.6080   -3.9711   23.7949 C   0  0  0  0  0  0  0  0  0  0  0  0
   11.2408   -2.6632   19.1167 N   0  0  0  0  0  0  0  0  0  0  0  0
   10.6479   -3.3481   21.3767 C   0  0  0  0  0  0  0  0  0  0  0  0
    9.4258   -5.7925   18.8389 C   0  0  0  0  0  0  0  0  0  0  0  0
    9.1271   -5.8787   17.5253 C   0  0  0  0  0  0  0  0  0  0  0  0
  1 10  1  0
  1 17  2  0
  1 29  1  0
  2  8  4  0
  2 23  4  0
  3 12  4  0
  3 28  4  0
  3 33  4  0
  4 13  4  0
  4 16  4  0
  4 18  4  0
  5  6  4  0
  5 15  4  0
  6 16  4  0
  6 17  1  0
  7 24  4  0
  7 27  4  0
  8 30  4  0
  9 20  1  0
  9 29  1  0
 10 16  1  0
 11 21  1  0
 11 29  1  0
 12 25  4  0
 12 31  4  0
 13 15  4  0
 13 27  4  0
 14 25  4  0
 14 34  4  0
 18 24  4  0
 19 26  4  0
 19 30  4  0
 19 32  1  0
 20 21  1  0
 20 34  1  0
 22 31  4  0
 22 32  4  0
 23 26  4  0
 28 32  4  0
 33 34  4  0
M  END
$$$$

 Created by Python create_sdf_string function

 34 63  0  0  0  0  0  0  0  0999 V2000
    5.7558   -8.9890   16.9829 C   0  0  0  0  0  0  0  0  0  0  0  0
    9.8029   -2.5214   25.5869 C   0  0  0  0  0  0  0  0  0  0  0  0
   10.2046   -4.5279   19.4199 C   0  0  0  0  0  0  0  0  0  0  0  0
    1.7720  -10.1470   16.8135 C   0  0  0  0  0  0  0  0  0  0  0  0
    3.1748  -11.1605   18.7376 C   0  0  0  0  0  0  0  0  0  0  0  0
    3.6246  -10.3454   17.5643 C   0  0  0  0  0  0  0  0  0  0  0  0
   -0.9014  -11.1516   15.4004 C   0  0  0  0  0  0  0  0  0  0  0  0
   10.1349   -3.7210   25.1262 C   0  0  0  0  0  0  0  0  0  0  0  0
    6.8511   -7.0488   17.4821 I   0  0  0  0  0  0  0  0  0  0  0  0
    4.1848   -8.7403   15.9742 Se  0  0  0  0  0  0  0  0  0  0  0  0
    7.7722   -8.3985   15.2541 N   0  0  0  0  0  0  0  0  0  0  0  0
    1.0660  -10.4265   17.7530 C   0  0  0  0  0  0  0  0  0  0  0  0
    9.4936   -4.9297   16.5415 C   0  0  0  0  0  0  0  0  0  0  0  0
    1.4818  -11.2030   18.4349 C   0  0  0  0  0  0  0  0  0  0  0  0
    3.0509   -9.5182   17.1839 C   0  0  0  0  0  0  0  0  0  0  0  0
    5.0950   -9.7598   17.7463 N   0  0  0  0  0  0  0  0  0  0  0  0
    0.8201   -9.6413   15.4409 C   0  0  0  0  0  0  0  0  0  0  0  0
   10.4588   -2.8006   22.5007 C   0  0  0  0  0  0  0  0  0  0  0  0
    8.3567   -7.1251   16.7787 O   0  0  0  0  0  0  0  0  0  0  0  0
    8.2905   -7.6728   15.3127 Cl  0  0  0  0  0  0  0  0  0  0  0  0
   11.2265   -2.4044   20.5393 C   0  0  0  0  0  0  0  0  0  0  0  0
    9.4832   -1.6467   24.5920 C   0  0  0  0  0  0  0  0  0  0  0  0
    0.2004  -10.3458   14.4094 P   0  0  0  0  0  0  0  0  0  0  0  0
   10.5103   -3.8374   17.1747 C   0  0  0  0  0  0  0  0  0  0  0  0
    9.8678   -1.7610   23.1794 N   0  0  0  0  0  0  0  0  0  0  0  0
   -0.2742  -11.3000   16.9352 C   0  0  0  0  0  0  0  0  0  0  0  0
   10.0806   -4.3543   20.8945 C   0  0  0  0  0  0  0  0  0  0  0  0
    6.5132   -8.3485   16.4900 N   0  0  0  0  0  0  0  0  0  0  0  0
   10.1972   -3.8135   23.9554 C   0  0  0  0  0  0  0  0  0  0  0  0
   11.2562   -2.3620   18.8873 N   0  0  0  0  0  0  0  0  0  0  0  0
   10.5826   -3.4268   21.3758 C   0  0  0  0  0  0  0  0  0  0  0  0
    9.5367   -5.6108   18.7315 C   0  0  0  0  0  0  0  0  0  0  0  0
   10.4659   -4.1908   18.8812 He  0  0  0  0  0  0  0  0  0  0  0  0
    9.1813   -5.6378   17.7026 He  0  0  0  0  0  0  0  0  0  0  0  0
  1  2  2  0
  1 10  1  0
  1 11  1  0
  1 15  2  0
  1 16  2  0
  1 20  3  0
  1 28  1  0
  1 31  4  0
  2  7  1  0
  2  8  4  0
  2  9  3  0
  2 21  4  0
  2 22  4  0
  3  7  2  0
  3 18  4  0
  3 32  4  0
  4 12  4  0
  4 15  4  0
  4 27  1  0
  5  6  4  0
  5 14  4  0
  6 15  4  0
  6 16  4  0
  6 22  2  0
  6 32  4  0
  7 17  2  0
  7 22  3  0
  7 23  4  0
  7 25  2  0
  7 26  4  0
  7 27  3  0
  8 14  3  0
  8 29  4  0
  9 19  4  0
  9 28  1  0
  9 29  3  0
 10 15  1  0
 11 28  3  0
 11 32  3  0
 12 14  4  0
 12 21  1  0
 12 26  4  0
 12 29  4  0
 12 31  1  0
 12 32  1  0
 13 24  4  0
 15 29  3  0
 15 32  4  0
 16 17  1  0
 16 27  2  0
 17 19  1  0
 18 21  2  0
 18 25  4  0
 18 29  1  0
 18 31  1  0
 19 20  1  0
 21 30  4  0
 22 25  4  0
 22 28  4  0
 24 27  3  0
 24 29  1  0
 26 32  3  0
 27 31  4  0
M  END
$$$$

 Created by Python create_sdf_string function

 34 40  0  0  0  0  0  0  0  0999 V2000
    5.3793   -8.9659   16.8833 C   0  0  0  0  0  0  0  0  0  0  0  0
    9.6830   -2.4745   25.4592 C   0  0  0  0  0  0  0  0  0  0  0  0
   10.0268   -4.6785   19.3721 C   0  0  0  0  0  0  0  0  0  0  0  0
    1.8070  -10.0243   16.5164 C   0  0  0  0  0  0  0  0  0  0  0  0
    3.0134  -11.0000   18.7770 C   0  0  0  0  0  0  0  0  0  0  0  0
    3.7327  -10.1977   17.8794 C   0  0  0  0  0  0  0  0  0  0  0  0
   -0.6798  -11.0456   15.7000 C   0  0  0  0  0  0  0  0  0  0  0  0
   10.1804   -3.7116   25.1163 C   0  0  0  0  0  0  0  0  0  0  0  0
    7.1089   -7.3155   17.4271 C   0  0  0  0  0  0  0  0  0  0  0  0
    4.0781   -8.6865   16.0398 S   0  0  0  0  0  0  0  0  0  0  0  0
    7.3868   -8.4716   15.4786 C   0  0  0  0  0  0  0  0  0  0  0  0
   10.5876   -3.6791   18.5709 C   0  0  0  0  0  0  0  0  0  0  0  0
    1.0662  -10.8545   17.3607 C   0  0  0  0  0  0  0  0  0  0  0  0
    9.7537   -4.8367   16.6194 C   0  0  0  0  0  0  0  0  0  0  0  0
    1.7199  -11.2484   18.5643 C   0  0  0  0  0  0  0  0  0  0  0  0
    3.1086   -9.6834   16.8441 C   0  0  0  0  0  0  0  0  0  0  0  0
    5.1492   -9.8008   17.8396 N   0  0  0  0  0  0  0  0  0  0  0  0
    1.1789   -9.6609   15.2855 C   0  0  0  0  0  0  0  0  0  0  0  0
   10.3542   -2.9973   22.8124 C   0  0  0  0  0  0  0  0  0  0  0  0
    8.3202   -6.8300   16.8230 C   0  0  0  0  0  0  0  0  0  0  0  0
    8.4377   -7.5149   15.5966 C   0  0  0  0  0  0  0  0  0  0  0  0
   11.1851   -2.4234   20.4953 C   0  0  0  0  0  0  0  0  0  0  0  0
    9.5744   -1.4678   24.5018 C   0  0  0  0  0  0  0  0  0  0  0  0
    0.0125  -10.2159   14.8327 C   0  0  0  0  0  0  0  0  0  0  0  0
   10.4210   -3.7992   17.1716 C   0  0  0  0  0  0  0  0  0  0  0  0
    9.9520   -1.7317   23.1987 N   0  0  0  0  0  0  0  0  0  0  0  0
   -0.2071  -11.2704   16.9928 C   0  0  0  0  0  0  0  0  0  0  0  0
   10.1417   -4.4973   20.8187 C   0  0  0  0  0  0  0  0  0  0  0  0
    6.5494   -8.3234   16.5578 N   0  0  0  0  0  0  0  0  0  0  0  0
   10.5263   -3.9793   23.7937 C   0  0  0  0  0  0  0  0  0  0  0  0
   11.2190   -2.6084   19.1330 N   0  0  0  0  0  0  0  0  0  0  0  0
   10.5780   -3.2901   21.3848 C   0  0  0  0  0  0  0  0  0  0  0  0
    9.3698   -5.7370   18.7559 C   0  0  0  0  0  0  0  0  0  0  0  0
    9.1557   -5.8334   17.3946 C   0  0  0  0  0  0  0  0  0  0  0  0
  1 10  1  0
  1 17  2  0
  1 29  1  0
  2  8  4  0
  2 23  4  0
  3 12  4  0
  3 28  4  0
  3 33  4  0
  4 13  4  0
  4 16  4  0
  4 18  4  0
  5  6  4  0
  5 15  4  0
  6 16  4  0
  6 17  1  0
  7 24  4  0
  7 27  4  0
  8 30  4  0
  9 20  1  0
  9 29  1  0
 10 16  1  0
 11 21  1  0
 11 29  1  0
 12 25  4  0
 12 31  4  0
 13 15  4  0
 13 27  4  0
 14 25  4  0
 14 34  4  0
 18 24  4  0
 19 26  4  0
 19 30  4  0
 19 32  1  0
 20 21  1  0
 20 34  1  0
 22 31  4  0
 22 32  4  0
 23 26  4  0
 28 32  4  0
 33 34  4  0
M  END
$$$$

 Created by Python create_sdf_string function

 34 59  0  0  0  0  0  0  0  0999 V2000
    9.6954   -2.2940   25.4820 C   0  0  0  0  0  0  0  0  0  0  0  0
   10.1279   -4.5742   19.6311 C   0  0  0  0  0  0  0  0  0  0  0  0
    3.0013  -10.7812   18.6397 C   0  0  0  0  0  0  0  0  0  0  0  0
    3.5142  -10.1837   17.9072 C   0  0  0  0  0  0  0  0  0  0  0  0
   -0.4521  -11.0836   15.8083 I   0  0  0  0  0  0  0  0  0  0  0  0
   10.3781   -3.7536   25.2598 C   0  0  0  0  0  0  0  0  0  0  0  0
    7.2111   -7.3226   17.4465 C   0  0  0  0  0  0  0  0  0  0  0  0
    4.4650   -8.0642   16.1269 S   0  0  0  0  0  0  0  0  0  0  0  0
    7.6500   -7.7740   15.4675 C   0  0  0  0  0  0  0  0  0  0  0  0
   10.0566   -3.8531   18.7569 C   0  0  0  0  0  0  0  0  0  0  0  0
    1.0926  -11.3471   17.4930 C   0  0  0  0  0  0  0  0  0  0  0  0
   10.0184   -4.6283   16.4544 C   0  0  0  0  0  0  0  0  0  0  0  0
    1.9069  -11.0603   18.5479 F   0  0  0  0  0  0  0  0  0  0  0  0
    2.5099  -10.2207   16.9241 C   0  0  0  0  0  0  0  0  0  0  0  0
    5.4011   -9.5861   18.1976 C   0  0  0  0  0  0  0  0  0  0  0  0
    1.3994   -9.2910   15.2048 C   0  0  0  0  0  0  0  0  0  0  0  0
   10.6431   -2.8826   22.6165 C   0  0  0  0  0  0  0  0  0  0  0  0
    8.2880   -6.6665   16.9711 C   0  0  0  0  0  0  0  0  0  0  0  0
    8.5667   -7.3239   15.9774 C   0  0  0  0  0  0  0  0  0  0  0  0
   11.3674   -2.3772   20.4627 C   0  0  0  0  0  0  0  0  0  0  0  0
    0.2082  -10.0974   14.9614 B   0  0  0  0  0  0  0  0  0  0  0  0
   10.4675   -3.8287   17.4780 C   0  0  0  0  0  0  0  0  0  0  0  0
   10.0023   -1.5576   23.0200 N   0  0  0  0  0  0  0  0  0  0  0  0
   -0.1458  -11.3754   17.1071 C   0  0  0  0  0  0  0  0  0  0  0  0
   10.0346   -4.2405   20.8739 C   0  0  0  0  0  0  0  0  0  0  0  0
    6.8139   -8.1872   16.5260 N   0  0  0  0  0  0  0  0  0  0  0  0
   10.4523   -3.6833   23.7063 C   0  0  0  0  0  0  0  0  0  0  0  0
   11.2424   -2.4170   18.9929 N   0  0  0  0  0  0  0  0  0  0  0  0
    9.3968   -6.1179   18.5823 C   0  0  0  0  0  0  0  0  0  0  0  0
    5.6146   -9.0018   16.8644 He  0  0  0  0  0  0  0  0  0  0  0  0
    1.6921   -9.9810   16.3858 He  0  0  0  0  0  0  0  0  0  0  0  0
    9.3773   -1.3128   24.3472 He  0  0  0  0  0  0  0  0  0  0  0  0
   10.5067   -3.2566   21.3228 He  0  0  0  0  0  0  0  0  0  0  0  0
    9.0836   -6.0547   16.9289 He  0  0  0  0  0  0  0  0  0  0  0  0
  1  3  3  0
  1  5  1  0
  1  6  4  0
  2  5  4  0
  2 10  4  0
  2 19  1  0
  2 20  2  0
  2 25  3  0
  2 29  4  0
  3  4  1  0
  3  8  2  0
  4  5  3  0
  4  7  4  0
  4 10  3  0
  4 14  4  0
  4 15  1  0
  4 27  3  0
  5 13  1  0
  5 19  4  0
  5 21  4  0
  5 24  4  0
  6 14  4  0
  6 15  1  0
  6 27  4  0
  7 10  3  0
  7 18  1  0
  7 26  1  0
  7 29  3  0
  8 14  1  0
  8 16  1  0
  8 20  1  0
  8 24  2  0
  9 19  1  0
  9 23  2  0
 10 12  4  0
 10 18  3  0
 10 22  4  0
 10 28  4  0
 11 13  4  0
 11 15  2  0
 11 24  4  0
 12 20  3  0
 12 22  4  0
 13 20  1  0
 14 15  3  0
 14 20  4  0
 14 25  1  0
 14 26  4  0
 15 17  1  0
 16 19  4  0
 16 21  4  0
 17 23  4  0
 17 27  4  0
 18 23  2  0
 19 20  1  0
 19 23  1  0
 19 26  2  0
 20 28  4  0
 21 27  2  0
M  END
$$$$

 Created by Python create_sdf_string function

 34 40  0  0  0  0  0  0  0  0999 V2000
    5.5354   -8.8353   16.8557 C   0  0  0  0  0  0  0  0  0  0  0  0
    9.7071   -2.3192   25.3695 C   0  0  0  0  0  0  0  0  0  0  0  0
   10.0469   -4.6631   19.3785 C   0  0  0  0  0  0  0  0  0  0  0  0
    1.9164  -10.0124   16.5684 C   0  0  0  0  0  0  0  0  0  0  0  0
    3.1482  -10.9366   18.8061 C   0  0  0  0  0  0  0  0  0  0  0  0
    3.8062  -10.0745   17.9215 C   0  0  0  0  0  0  0  0  0  0  0  0
   -0.5670  -10.9995   15.8106 N   0  0  0  0  0  0  0  0  0  0  0  0
   10.2508   -3.5397   25.0551 C   0  0  0  0  0  0  0  0  0  0  0  0
    7.2263   -7.3071   17.5461 C   0  0  0  0  0  0  0  0  0  0  0  0
    4.2214   -8.5872   16.0281 S   0  0  0  0  0  0  0  0  0  0  0  0
    7.3486   -8.1882   15.3891 C   0  0  0  0  0  0  0  0  0  0  0  0
   10.6029   -3.6360   18.6104 C   0  0  0  0  0  0  0  0  0  0  0  0
    1.2253  -10.8957   17.3834 C   0  0  0  0  0  0  0  0  0  0  0  0
    9.8097   -4.7684   16.6374 C   0  0  0  0  0  0  0  0  0  0  0  0
    1.8992  -11.2648   18.5381 N   0  0  0  0  0  0  0  0  0  0  0  0
    3.1751   -9.6077   16.8886 C   0  0  0  0  0  0  0  0  0  0  0  0
    5.1941   -9.6222   17.9426 C   0  0  0  0  0  0  0  0  0  0  0  0
    1.3037   -9.6061   15.3360 C   0  0  0  0  0  0  0  0  0  0  0  0
   10.4135   -2.9138   22.7362 C   0  0  0  0  0  0  0  0  0  0  0  0
    8.3521   -6.6757   16.8271 C   0  0  0  0  0  0  0  0  0  0  0  0
    8.4957   -7.3098   15.5825 C   0  0  0  0  0  0  0  0  0  0  0  0
   11.1950   -2.3852   20.4951 C   0  0  0  0  0  0  0  0  0  0  0  0
    9.5912   -1.3519   24.3914 C   0  0  0  0  0  0  0  0  0  0  0  0
    0.0616  -10.1295   14.9978 C   0  0  0  0  0  0  0  0  0  0  0  0
   10.4797   -3.7434   17.2103 C   0  0  0  0  0  0  0  0  0  0  0  0
   10.0025   -1.6321   23.1016 N   0  0  0  0  0  0  0  0  0  0  0  0
   -0.0288  -11.3808   17.0199 C   0  0  0  0  0  0  0  0  0  0  0  0
   10.1489   -4.4486   20.8327 C   0  0  0  0  0  0  0  0  0  0  0  0
    6.6557   -8.3144   16.6681 N   0  0  0  0  0  0  0  0  0  0  0  0
   10.5906   -3.8376   23.7499 C   0  0  0  0  0  0  0  0  0  0  0  0
   11.1728   -2.5593   19.1454 N   0  0  0  0  0  0  0  0  0  0  0  0
   10.6088   -3.2513   21.3649 C   0  0  0  0  0  0  0  0  0  0  0  0
    9.4242   -5.7064   18.7598 C   0  0  0  0  0  0  0  0  0  0  0  0
    9.2008   -5.7537   17.4106 C   0  0  0  0  0  0  0  0  0  0  0  0
  1 10  1  0
  1 17  1  0
  1 29  1  0
  2  8  4  0
  2 23  4  0
  3 12  4  0
  3 28  4  0
  3 33  4  0
  4 13  4  0
  4 16  4  0
  4 18  4  0
  5  6  4  0
  5 15  4  0
  6 16  4  0
  6 17  1  0
  7 24  4  0
  7 27  4  0
  8 30  4  0
  9 20  1  0
  9 29  1  0
 10 16  1  0
 11 21  1  0
 11 29  1  0
 12 25  4  0
 12 31  4  0
 13 15  4  0
 13 27  4  0
 14 25  4  0
 14 34  4  0
 18 24  4  0
 19 26  4  0
 19 30  4  0
 19 32  1  0
 20 21  1  0
 20 34  1  0
 22 31  4  0
 22 32  4  0
 23 26  4  0
 28 32  4  0
 33 34  4  0
M  END
$$$$

 Created by Python create_sdf_string function

 34 81  0  0  0  0  0  0  0  0999 V2000
    5.4714   -8.8422   16.5775 C   0  0  0  0  0  0  0  0  0  0  0  0
    9.7300   -2.4019   25.5657 C   0  0  0  0  0  0  0  0  0  0  0  0
    9.9188   -4.8952   19.3302 C   0  0  0  0  0  0  0  0  0  0  0  0
    1.9396  -10.0796   16.8617 C   0  0  0  0  0  0  0  0  0  0  0  0
    3.0040  -11.0960   18.6998 C   0  0  0  0  0  0  0  0  0  0  0  0
    3.7112  -10.0150   17.8460 C   0  0  0  0  0  0  0  0  0  0  0  0
   -0.8665  -10.8982   15.9937 Cl  0  0  0  0  0  0  0  0  0  0  0  0
   10.1108   -3.7679   25.1353 C   0  0  0  0  0  0  0  0  0  0  0  0
    7.4873   -7.0761   17.6236 C   0  0  0  0  0  0  0  0  0  0  0  0
    4.5168   -8.4690   15.8446 S   0  0  0  0  0  0  0  0  0  0  0  0
    7.3552   -8.5826   15.2026 C   0  0  0  0  0  0  0  0  0  0  0  0
   10.4239   -3.6411   18.7191 C   0  0  0  0  0  0  0  0  0  0  0  0
    1.6660  -10.8767   17.4947 C   0  0  0  0  0  0  0  0  0  0  0  0
    9.7902   -4.6354   16.8951 C   0  0  0  0  0  0  0  0  0  0  0  0
    2.0982  -11.3732   18.8250 N   0  0  0  0  0  0  0  0  0  0  0  0
    3.4514   -9.6378   16.7381 C   0  0  0  0  0  0  0  0  0  0  0  0
    4.3206   -9.7535   17.9483 N   0  0  0  0  0  0  0  0  0  0  0  0
    1.3710   -9.8293   15.2944 C   0  0  0  0  0  0  0  0  0  0  0  0
   10.4148   -2.8982   22.8042 C   0  0  0  0  0  0  0  0  0  0  0  0
    8.7779   -7.4783   15.9492 C   0  0  0  0  0  0  0  0  0  0  0  0
    9.6005   -1.2915   24.5189 C   0  0  0  0  0  0  0  0  0  0  0  0
   10.7017   -3.5793   17.2222 C   0  0  0  0  0  0  0  0  0  0  0  0
   10.3521   -1.8355   23.0825 N   0  0  0  0  0  0  0  0  0  0  0  0
   -0.0581  -11.6529   17.1349 C   0  0  0  0  0  0  0  0  0  0  0  0
   10.1760   -4.5201   20.9141 O   0  0  0  0  0  0  0  0  0  0  0  0
    6.8435   -8.2015   16.5971 N   0  0  0  0  0  0  0  0  0  0  0  0
   10.4177   -3.9084   23.9876 C   0  0  0  0  0  0  0  0  0  0  0  0
   11.2892   -2.7272   19.1805 C   0  0  0  0  0  0  0  0  0  0  0  0
   10.5960   -3.2447   21.2845 C   0  0  0  0  0  0  0  0  0  0  0  0
    9.1434   -5.6907   18.3978 P   0  0  0  0  0  0  0  0  0  0  0  0
    8.8424   -5.3377   17.4450 C   0  0  0  0  0  0  0  0  0  0  0  0
    8.0173   -6.8838   16.6797 He  0  0  0  0  0  0  0  0  0  0  0  0
   11.3390   -2.4178   20.4120 He  0  0  0  0  0  0  0  0  0  0  0  0
   -0.0456  -10.1546   14.7702 He  0  0  0  0  0  0  0  0  0  0  0  0
  1 17  1  0
  1 20  4  0
  1 21  3  0
  1 26  1  0
  2  8  4  0
  2  9  4  0
  2 16  1  0
  2 21  4  0
  2 23  2  0
  3  4  4  0
  3  7  1  0
  3 12  4  0
  3 20  4  0
  3 30  4  0
  4 10  4  0
  4 12  2  0
  4 13  4  0
  4 16  4  0
  4 18  4  0
  4 28  1  0
  5  6  4  0
  5 14  3  0
  5 15  4  0
  6  9  4  0
  6 10  2  0
  6 16  2  0
  6 17  1  0
  6 18  1  0
  7 14  2  0
  7 24  4  0
  7 31  1  0
  8 10  4  0
  8 24  1  0
  8 27  4  0
  8 29  2  0
  9 21  3  0
  9 23  1  0
  9 26  1  0
 10 16  1  0
 10 30  3  0
 11 14  3  0
 11 24  4  0
 11 26  1  0
 11 29  2  0
 11 31  2  0
 12 20  4  0
 12 21  2  0
 12 22  4  0
 12 28  4  0
 12 30  3  0
 12 31  3  0
 13 15  4  0
 13 16  3  0
 13 24  4  0
 13 31  3  0
 14 15  3  0
 14 22  4  0
 14 25  2  0
 14 31  4  0
 15 27  4  0
 15 29  1  0
 15 30  1  0
 15 31  4  0
 16 19  2  0
 17 22  3  0
 18 20  4  0
 18 29  1  0
 18 30  2  0
 19 22  3  0
 19 23  4  0
 19 27  4  0
 19 29  1  0
 20 26  2  0
 21 23  4  0
 21 24  4  0
 23 28  2  0
 26 28  2  0
 26 30  4  0
 27 30  1  0
 29 30  2  0
 30 31  4  0
M  END
$$$$

 Created by Python create_sdf_string function

 34 40  0  0  0  0  0  0  0  0999 V2000
    5.4474   -8.8305   16.8615 C   0  0  0  0  0  0  0  0  0  0  0  0
    9.7244   -2.3730   25.4281 C   0  0  0  0  0  0  0  0  0  0  0  0
    9.9857   -4.5862   19.3023 C   0  0  0  0  0  0  0  0  0  0  0  0
    1.9599  -10.0931   16.5385 C   0  0  0  0  0  0  0  0  0  0  0  0
    3.1982  -10.8809   18.7629 C   0  0  0  0  0  0  0  0  0  0  0  0
    3.8442  -10.0402   17.8573 C   0  0  0  0  0  0  0  0  0  0  0  0
   -0.6242  -11.0308   15.9547 C   0  0  0  0  0  0  0  0  0  0  0  0
   10.1265   -3.6617   25.1027 C   0  0  0  0  0  0  0  0  0  0  0  0
    7.1496   -7.2601   17.5295 C   0  0  0  0  0  0  0  0  0  0  0  0
    4.2547   -8.7235   15.8523 S   0  0  0  0  0  0  0  0  0  0  0  0
    7.5008   -8.4482   15.4916 C   0  0  0  0  0  0  0  0  0  0  0  0
   10.6508   -3.6163   18.5740 C   0  0  0  0  0  0  0  0  0  0  0  0
    1.2680  -10.9440   17.4437 C   0  0  0  0  0  0  0  0  0  0  0  0
    9.7809   -4.6651   16.5809 C   0  0  0  0  0  0  0  0  0  0  0  0
    1.9842  -11.3337   18.5869 N   0  0  0  0  0  0  0  0  0  0  0  0
    3.2464   -9.6538   16.7636 C   0  0  0  0  0  0  0  0  0  0  0  0
    5.0971   -9.5206   17.9402 N   0  0  0  0  0  0  0  0  0  0  0  0
    1.2583   -9.7071   15.3624 C   0  0  0  0  0  0  0  0  0  0  0  0
   10.4264   -3.0130   22.7964 C   0  0  0  0  0  0  0  0  0  0  0  0
    8.1356   -6.5175   16.7227 C   0  0  0  0  0  0  0  0  0  0  0  0
    8.5765   -7.4543   15.6123 C   0  0  0  0  0  0  0  0  0  0  0  0
   11.2891   -2.4663   20.5618 N   0  0  0  0  0  0  0  0  0  0  0  0
    9.7482   -1.3677   24.4601 C   0  0  0  0  0  0  0  0  0  0  0  0
   -0.0137  -10.2004   15.0762 C   0  0  0  0  0  0  0  0  0  0  0  0
   10.5372   -3.7141   17.1628 C   0  0  0  0  0  0  0  0  0  0  0  0
   10.1279   -1.6933   23.1737 N   0  0  0  0  0  0  0  0  0  0  0  0
   -0.0273  -11.3772   17.1417 C   0  0  0  0  0  0  0  0  0  0  0  0
   10.1044   -4.4577   20.7951 C   0  0  0  0  0  0  0  0  0  0  0  0
    6.6624   -8.3411   16.6773 N   0  0  0  0  0  0  0  0  0  0  0  0
   10.4624   -3.9719   23.7853 C   0  0  0  0  0  0  0  0  0  0  0  0
   11.2567   -2.6196   19.1702 C   0  0  0  0  0  0  0  0  0  0  0  0
   10.6518   -3.3262   21.3862 C   0  0  0  0  0  0  0  0  0  0  0  0
    9.2446   -5.5688   18.6661 C   0  0  0  0  0  0  0  0  0  0  0  0
    9.1079   -5.6157   17.3161 C   0  0  0  0  0  0  0  0  0  0  0  0
  1 10  1  0
  1 17  1  0
  1 29  1  0
  2  8  4  0
  2 23  4  0
  3 12  4  0
  3 28  4  0
  3 33  4  0
  4 13  4  0
  4 16  4  0
  4 18  4  0
  5  6  4  0
  5 15  4  0
  6 16  4  0
  6 17  1  0
  7 24  4  0
  7 27  4  0
  8 30  4  0
  9 20  1  0
  9 29  1  0
 10 16  1  0
 11 21  1  0
 11 29  1  0
 12 25  4  0
 12 31  4  0
 13 15  4  0
 13 27  4  0
 14 25  4  0
 14 34  4  0
 18 24  4  0
 19 26  4  0
 19 30  4  0
 19 32  1  0
 20 21  1  0
 20 34  1  0
 22 31  4  0
 22 32  4  0
 23 26  4  0
 28 32  4  0
 33 34  4  0
M  END
$$$$

 Created by Python create_sdf_string function

 34 71  0  0  0  0  0  0  0  0999 V2000
    5.9800   -9.0177   17.2448 C   0  0  0  0  0  0  0  0  0  0  0  0
    9.6887   -2.4258   25.2687 C   0  0  0  0  0  0  0  0  0  0  0  0
    9.8054   -4.6940   19.1851 C   0  0  0  0  0  0  0  0  0  0  0  0
    1.9962   -9.8695   16.0029 C   0  0  0  0  0  0  0  0  0  0  0  0
    3.0256  -10.9485   18.7238 C   0  0  0  0  0  0  0  0  0  0  0  0
    3.8977   -9.9987   17.9130 C   0  0  0  0  0  0  0  0  0  0  0  0
   -0.6760  -10.8834   15.9635 C   0  0  0  0  0  0  0  0  0  0  0  0
    6.9678   -7.3635   17.5196 C   0  0  0  0  0  0  0  0  0  0  0  0
    4.1312   -9.1599   16.4303 S   0  0  0  0  0  0  0  0  0  0  0  0
    7.2600   -8.5274   15.2255 C   0  0  0  0  0  0  0  0  0  0  0  0
   10.9159   -3.6619   18.6199 C   0  0  0  0  0  0  0  0  0  0  0  0
    0.7698  -11.3396   16.9849 C   0  0  0  0  0  0  0  0  0  0  0  0
   10.1196   -4.7781   16.7060 C   0  0  0  0  0  0  0  0  0  0  0  0
    3.5811   -9.7294   16.9056 C   0  0  0  0  0  0  0  0  0  0  0  0
    1.3630   -9.7880   15.2923 C   0  0  0  0  0  0  0  0  0  0  0  0
   10.4398   -2.9468   22.8141 C   0  0  0  0  0  0  0  0  0  0  0  0
    8.1575   -6.5672   16.3428 C   0  0  0  0  0  0  0  0  0  0  0  0
    8.5497   -7.7239   15.7524 C   0  0  0  0  0  0  0  0  0  0  0  0
   11.2658   -2.2729   20.7320 N   0  0  0  0  0  0  0  0  0  0  0  0
    9.8881   -1.4207   24.5878 C   0  0  0  0  0  0  0  0  0  0  0  0
   -0.1978   -9.9677   15.2807 C   0  0  0  0  0  0  0  0  0  0  0  0
   10.4841   -3.4497   17.0434 C   0  0  0  0  0  0  0  0  0  0  0  0
   10.0989   -1.7416   23.0507 N   0  0  0  0  0  0  0  0  0  0  0  0
    0.0843  -11.4097   17.1304 C   0  0  0  0  0  0  0  0  0  0  0  0
    9.9708   -4.4078   20.8612 C   0  0  0  0  0  0  0  0  0  0  0  0
    6.6211   -8.4921   16.5232 N   0  0  0  0  0  0  0  0  0  0  0  0
   10.4508   -3.9911   23.7812 C   0  0  0  0  0  0  0  0  0  0  0  0
   11.4751   -2.4826   19.3132 C   0  0  0  0  0  0  0  0  0  0  0  0
   10.8052   -3.4884   21.5443 C   0  0  0  0  0  0  0  0  0  0  0  0
    9.5617   -5.2770   18.3238 C   0  0  0  0  0  0  0  0  0  0  0  0
    8.6325   -5.4806   17.1998 C   0  0  0  0  0  0  0  0  0  0  0  0
   10.0136   -3.7729   25.0494 He  0  0  0  0  0  0  0  0  0  0  0  0
    1.9283  -11.0496   18.5487 He  0  0  0  0  0  0  0  0  0  0  0  0
    4.8235   -9.6802   18.2382 He  0  0  0  0  0  0  0  0  0  0  0  0
  1  9  1  0
  1 14  2  0
  1 18  1  0
  1 22  1  0
  1 26  1  0
  2  4  2  0
  2 12  2  0
  2 15  3  0
  2 20  4  0
  3  4  4  0
  3 25  4  0
  3 30  4  0
  4 10  3  0
  4 14  4  0
  4 15  4  0
  4 27  1  0
  4 29  1  0
  5  6  4  0
  5 23  4  0
  5 30  3  0
  6 12  4  0
  6 14  4  0
  6 18  4  0
  7 13  4  0
  7 18  2  0
  7 21  1  0
  7 24  4  0
  7 25  1  0
  8 16  3  0
  8 17  1  0
  8 20  1  0
  8 25  2  0
  8 26  1  0
  9 14  1  0
  9 18  2  0
  9 21  1  0
  9 26  2  0
  9 27  2  0
 10 13  4  0
 10 18  1  0
 10 22  1  0
 10 24  4  0
 10 26  1  0
 11 22  4  0
 11 28  1  0
 11 30  2  0
 12 16  3  0
 12 24  4  0
 12 26  1  0
 12 30  3  0
 13 22  4  0
 13 26  1  0
 13 29  3  0
 13 31  4  0
 14 20  1  0
 14 31  1  0
 15 18  1  0
 15 21  4  0
 16 21  2  0
 16 23  4  0
 16 27  4  0
 16 29  1  0
 17 31  1  0
 18 21  1  0
 18 28  2  0
 19 28  4  0
 20 23  4  0
 21 27  1  0
 24 27  1  0
 25 29  4  0
 27 28  2  0
M  END
$$$$

 Created by Python create_sdf_string function

 34 40  0  0  0  0  0  0  0  0999 V2000
    5.5567   -9.0626   17.0112 C   0  0  0  0  0  0  0  0  0  0  0  0
    9.7197   -2.4142   25.4049 C   0  0  0  0  0  0  0  0  0  0  0  0
    9.9731   -4.5341   19.2383 C   0  0  0  0  0  0  0  0  0  0  0  0
    1.9516  -10.0720   16.5208 C   0  0  0  0  0  0  0  0  0  0  0  0
    3.0700  -10.9544   18.8406 C   0  0  0  0  0  0  0  0  0  0  0  0
    3.8072  -10.1609   18.0104 C   0  0  0  0  0  0  0  0  0  0  0  0
   -0.6813  -10.8810   15.8897 C   0  0  0  0  0  0  0  0  0  0  0  0
   10.0728   -3.6975   25.0789 N   0  0  0  0  0  0  0  0  0  0  0  0
    7.1146   -7.1986   17.4446 C   0  0  0  0  0  0  0  0  0  0  0  0
    4.3845   -8.9787   16.0221 S   0  0  0  0  0  0  0  0  0  0  0  0
    7.3771   -8.5075   15.5086 C   0  0  0  0  0  0  0  0  0  0  0  0
   10.6975   -3.5743   18.5279 C   0  0  0  0  0  0  0  0  0  0  0  0
    1.2409  -10.9408   17.4033 C   0  0  0  0  0  0  0  0  0  0  0  0
    9.8519   -4.6320   16.5143 C   0  0  0  0  0  0  0  0  0  0  0  0
    1.9008  -11.3321   18.5367 N   0  0  0  0  0  0  0  0  0  0  0  0
    3.2854   -9.7807   16.8565 C   0  0  0  0  0  0  0  0  0  0  0  0
    5.1692   -9.6808   18.1563 N   0  0  0  0  0  0  0  0  0  0  0  0
    1.3030   -9.6465   15.3491 C   0  0  0  0  0  0  0  0  0  0  0  0
   10.4120   -3.0256   22.7940 C   0  0  0  0  0  0  0  0  0  0  0  0
    8.1676   -6.5060   16.5958 C   0  0  0  0  0  0  0  0  0  0  0  0
    8.5389   -7.5069   15.5679 C   0  0  0  0  0  0  0  0  0  0  0  0
   11.3030   -2.4762   20.5973 N   0  0  0  0  0  0  0  0  0  0  0  0
    9.7803   -1.4108   24.4605 C   0  0  0  0  0  0  0  0  0  0  0  0
    0.0022  -10.0259   15.0495 C   0  0  0  0  0  0  0  0  0  0  0  0
   10.6162   -3.7052   17.1241 C   0  0  0  0  0  0  0  0  0  0  0  0
   10.2135   -1.7092   23.1729 N   0  0  0  0  0  0  0  0  0  0  0  0
   -0.0617  -11.3622   17.0692 C   0  0  0  0  0  0  0  0  0  0  0  0
   10.0685   -4.4651   20.7051 C   0  0  0  0  0  0  0  0  0  0  0  0
    6.6129   -8.3856   16.7902 N   0  0  0  0  0  0  0  0  0  0  0  0
   10.4196   -4.0222   23.7731 C   0  0  0  0  0  0  0  0  0  0  0  0
   11.3130   -2.5875   19.2287 N   0  0  0  0  0  0  0  0  0  0  0  0
   10.6057   -3.3357   21.3696 C   0  0  0  0  0  0  0  0  0  0  0  0
    9.2310   -5.4841   18.5688 C   0  0  0  0  0  0  0  0  0  0  0  0
    9.1090   -5.5864   17.2155 C   0  0  0  0  0  0  0  0  0  0  0  0
  1 10  1  0
  1 17  1  0
  1 29  1  0
  2  8  4  0
  2 23  4  0
  3 12  4  0
  3 28  4  0
  3 33  4  0
  4 13  4  0
  4 16  4  0
  4 18  4  0
  5  6  4  0
  5 15  4  0
  6 16  4  0
  6 17  1  0
  7 24  4  0
  7 27  4  0
  8 30  4  0
  9 20  1  0
  9 29  1  0
 10 16  1  0
 11 21  1  0
 11 29  1  0
 12 25  4  0
 12 31  4  0
 13 15  4  0
 13 27  4  0
 14 25  4  0
 14 34  4  0
 18 24  4  0
 19 26  4  0
 19 30  4  0
 19 32  1  0
 20 21  1  0
 20 34  1  0
 22 31  4  0
 22 32  4  0
 23 26  4  0
 28 32  4  0
 33 34  4  0
M  END
$$$$

 Created by Python create_sdf_string function

 34 56  0  0  0  0  0  0  0  0999 V2000
    5.6330   -8.7403   16.5847 C   0  0  0  0  0  0  0  0  0  0  0  0
    9.7289   -2.4107   25.4903 C   0  0  0  0  0  0  0  0  0  0  0  0
    9.9569   -4.5727   19.3746 C   0  0  0  0  0  0  0  0  0  0  0  0
    1.5094  -10.0461   16.4963 C   0  0  0  0  0  0  0  0  0  0  0  0
    2.7944  -11.0218   18.9426 C   0  0  0  0  0  0  0  0  0  0  0  0
    3.7914  -10.0792   17.8248 C   0  0  0  0  0  0  0  0  0  0  0  0
   -0.1859  -10.9505   15.5046 C   0  0  0  0  0  0  0  0  0  0  0  0
   10.0881   -3.7336   25.0435 N   0  0  0  0  0  0  0  0  0  0  0  0
    7.2841   -7.5312   17.7115 C   0  0  0  0  0  0  0  0  0  0  0  0
    4.2093   -9.0464   15.9217 S   0  0  0  0  0  0  0  0  0  0  0  0
    7.4249   -8.1985   15.8473 C   0  0  0  0  0  0  0  0  0  0  0  0
    9.7978   -4.6404   16.6392 C   0  0  0  0  0  0  0  0  0  0  0  0
    1.9235  -11.7134   18.8318 N   0  0  0  0  0  0  0  0  0  0  0  0
    3.2699   -9.7095   16.8892 C   0  0  0  0  0  0  0  0  0  0  0  0
    5.4384   -9.4346   17.9035 N   0  0  0  0  0  0  0  0  0  0  0  0
    1.6183   -9.7473   15.3948 C   0  0  0  0  0  0  0  0  0  0  0  0
   10.5285   -2.8414   22.6704 C   0  0  0  0  0  0  0  0  0  0  0  0
    8.1706   -6.3795   16.4719 C   0  0  0  0  0  0  0  0  0  0  0  0
    8.7452   -7.4137   15.0720 C   0  0  0  0  0  0  0  0  0  0  0  0
   11.4224   -2.3416   20.5143 N   0  0  0  0  0  0  0  0  0  0  0  0
    9.8069   -1.2212   24.2817 C   0  0  0  0  0  0  0  0  0  0  0  0
    0.2077   -9.9588   14.7046 C   0  0  0  0  0  0  0  0  0  0  0  0
   10.5296   -3.6339   17.1151 C   0  0  0  0  0  0  0  0  0  0  0  0
   10.2098   -1.6633   23.1858 N   0  0  0  0  0  0  0  0  0  0  0  0
   -0.2031  -11.3004   16.9845 C   0  0  0  0  0  0  0  0  0  0  0  0
   10.0603   -4.4660   20.8416 C   0  0  0  0  0  0  0  0  0  0  0  0
    6.7117   -8.2528   16.7719 P   0  0  0  0  0  0  0  0  0  0  0  0
   10.4157   -3.6459   23.5320 C   0  0  0  0  0  0  0  0  0  0  0  0
   11.5834   -2.5050   19.4701 N   0  0  0  0  0  0  0  0  0  0  0  0
    9.4258   -5.4118   17.2341 C   0  0  0  0  0  0  0  0  0  0  0  0
   10.7760   -3.6228   18.3535 He  0  0  0  0  0  0  0  0  0  0  0  0
    1.3314  -10.9438   17.2838 He  0  0  0  0  0  0  0  0  0  0  0  0
   10.7437   -3.5743   21.3574 He  0  0  0  0  0  0  0  0  0  0  0  0
    9.1639   -5.1353   18.7084 He  0  0  0  0  0  0  0  0  0  0  0  0
  1 10  1  0
  1 15  1  0
  1 20  1  0
  1 27  1  0
  2  8  4  0
  2 20  3  0
  2 21  4  0
  3 23  1  0
  3 26  4  0
  4  5  2  0
  4 13  2  0
  4 14  4  0
  4 16  4  0
  4 18  2  0
  5  6  4  0
  5  7  1  0
  5 13  4  0
  5 21  2  0
  6 13  4  0
  6 14  4  0
  6 28  1  0
  7 16  2  0
  7 19  1  0
  7 23  3  0
  7 24  1  0
  7 25  1  0
  8 11  2  0
  8 13  2  0
  8 15  4  0
  8 28  4  0
  9 18  1  0
  9 27  1  0
 10 14  1  0
 10 16  1  0
 10 20  2  0
 11 19  1  0
 11 21  2  0
 12 18  4  0
 12 23  4  0
 12 30  4  0
 13 19  3  0
 14 29  4  0
 14 30  4  0
 15 18  2  0
 15 23  1  0
 16 22  4  0
 17 19  2  0
 17 24  4  0
 18 19  1  0
 18 28  2  0
 18 30  1  0
 19 22  4  0
 19 26  3  0
 20 29  4  0
 21 24  4  0
 21 26  3  0
M  END
$$$$

 Created by Python create_sdf_string function

 34 40  0  0  0  0  0  0  0  0999 V2000
    5.5155   -8.8820   16.9172 C   0  0  0  0  0  0  0  0  0  0  0  0
    9.7433   -2.3253   25.3242 C   0  0  0  0  0  0  0  0  0  0  0  0
    9.9917   -4.5008   19.2607 C   0  0  0  0  0  0  0  0  0  0  0  0
    2.0212  -10.0933   16.5001 C   0  0  0  0  0  0  0  0  0  0  0  0
    3.1115  -10.9560   18.7908 C   0  0  0  0  0  0  0  0  0  0  0  0
    3.8770  -10.1052   17.9480 C   0  0  0  0  0  0  0  0  0  0  0  0
   -0.5196  -10.9784   15.6903 C   0  0  0  0  0  0  0  0  0  0  0  0
   10.1022   -3.5912   25.0160 N   0  0  0  0  0  0  0  0  0  0  0  0
    7.2843   -7.3112   17.5427 C   0  0  0  0  0  0  0  0  0  0  0  0
    4.3047   -8.8745   15.9622 S   0  0  0  0  0  0  0  0  0  0  0  0
    7.4843   -8.3904   15.4651 C   0  0  0  0  0  0  0  0  0  0  0  0
   10.7248   -3.5226   18.5720 C   0  0  0  0  0  0  0  0  0  0  0  0
    1.2510  -10.9419   17.3330 C   0  0  0  0  0  0  0  0  0  0  0  0
    9.8899   -4.5704   16.5456 C   0  0  0  0  0  0  0  0  0  0  0  0
    1.8437  -11.3234   18.5505 N   0  0  0  0  0  0  0  0  0  0  0  0
    3.2978   -9.7377   16.8347 C   0  0  0  0  0  0  0  0  0  0  0  0
    5.2425   -9.5384   18.0280 N   0  0  0  0  0  0  0  0  0  0  0  0
    1.4304   -9.6443   15.2896 C   0  0  0  0  0  0  0  0  0  0  0  0
   10.4611   -2.9607   22.7419 C   0  0  0  0  0  0  0  0  0  0  0  0
    8.2256   -6.4627   16.6981 C   0  0  0  0  0  0  0  0  0  0  0  0
    8.5166   -7.2454   15.4569 C   0  0  0  0  0  0  0  0  0  0  0  0
   11.3969   -2.4888   20.5509 N   0  0  0  0  0  0  0  0  0  0  0  0
    9.8077   -1.3181   24.3619 C   0  0  0  0  0  0  0  0  0  0  0  0
    0.1947  -10.1299   14.8670 C   0  0  0  0  0  0  0  0  0  0  0  0
   10.6757   -3.6248   17.1487 C   0  0  0  0  0  0  0  0  0  0  0  0
   10.2212   -1.6306   23.0916 N   0  0  0  0  0  0  0  0  0  0  0  0
   -0.0105  -11.3704   16.8991 C   0  0  0  0  0  0  0  0  0  0  0  0
   10.0773   -4.3943   20.7118 C   0  0  0  0  0  0  0  0  0  0  0  0
    6.6033   -8.2639   16.6517 C   0  0  0  0  0  0  0  0  0  0  0  0
   10.4610   -3.9030   23.7534 C   0  0  0  0  0  0  0  0  0  0  0  0
   11.4186   -2.5664   19.2090 N   0  0  0  0  0  0  0  0  0  0  0  0
   10.6750   -3.2800   21.3433 C   0  0  0  0  0  0  0  0  0  0  0  0
    9.2730   -5.4279   18.6008 C   0  0  0  0  0  0  0  0  0  0  0  0
    9.1452   -5.4934   17.2535 C   0  0  0  0  0  0  0  0  0  0  0  0
  1 10  1  0
  1 17  1  0
  1 29  1  0
  2  8  4  0
  2 23  4  0
  3 12  4  0
  3 28  4  0
  3 33  4  0
  4 13  4  0
  4 16  4  0
  4 18  4  0
  5  6  4  0
  5 15  4  0
  6 16  4  0
  6 17  1  0
  7 24  4  0
  7 27  4  0
  8 30  4  0
  9 20  1  0
  9 29  1  0
 10 16  1  0
 11 21  1  0
 11 29  1  0
 12 25  4  0
 12 31  4  0
 13 15  4  0
 13 27  4  0
 14 25  4  0
 14 34  4  0
 18 24  4  0
 19 26  4  0
 19 30  4  0
 19 32  1  0
 20 21  1  0
 20 34  1  0
 22 31  4  0
 22 32  4  0
 23 26  4  0
 28 32  4  0
 33 34  4  0
M  END
$$$$

 Created by Python create_sdf_string function

 34 62  0  0  0  0  0  0  0  0999 V2000
    5.4562   -8.7368   16.6182 C   0  0  0  0  0  0  0  0  0  0  0  0
   10.3153   -4.7055   19.0841 C   0  0  0  0  0  0  0  0  0  0  0  0
    2.0219  -10.2992   16.5335 C   0  0  0  0  0  0  0  0  0  0  0  0
    2.9316  -10.7921   18.8828 S   0  0  0  0  0  0  0  0  0  0  0  0
    3.9347  -10.0090   17.8786 O   0  0  0  0  0  0  0  0  0  0  0  0
   -0.2640  -11.0450   16.0617 C   0  0  0  0  0  0  0  0  0  0  0  0
   10.1444   -3.5819   25.1944 C   0  0  0  0  0  0  0  0  0  0  0  0
    7.3801   -7.1312   17.4884 C   0  0  0  0  0  0  0  0  0  0  0  0
    4.0264   -8.8364   16.2430 S   0  0  0  0  0  0  0  0  0  0  0  0
   10.6194   -3.7058   18.7172 C   0  0  0  0  0  0  0  0  0  0  0  0
    1.1925  -10.8544   17.5070 C   0  0  0  0  0  0  0  0  0  0  0  0
   10.1358   -4.3848   16.3044 C   0  0  0  0  0  0  0  0  0  0  0  0
    2.1630  -11.0652   18.9320 N   0  0  0  0  0  0  0  0  0  0  0  0
    3.3442   -9.6057   17.1134 C   0  0  0  0  0  0  0  0  0  0  0  0
    4.6406   -9.4027   17.9259 N   0  0  0  0  0  0  0  0  0  0  0  0
    1.3780   -9.8967   15.4987 C   0  0  0  0  0  0  0  0  0  0  0  0
   10.5649   -3.0199   22.7621 Cl  0  0  0  0  0  0  0  0  0  0  0  0
    8.1741   -6.3131   16.9276 C   0  0  0  0  0  0  0  0  0  0  0  0
    8.6586   -7.5793   15.2559 C   0  0  0  0  0  0  0  0  0  0  0  0
   11.0939   -2.3190   20.7151 N   0  0  0  0  0  0  0  0  0  0  0  0
    9.6510   -1.2871   24.4081 C   0  0  0  0  0  0  0  0  0  0  0  0
    0.0243   -9.8496   14.7364 C   0  0  0  0  0  0  0  0  0  0  0  0
   10.5185   -3.6849   17.4015 C   0  0  0  0  0  0  0  0  0  0  0  0
   10.2256   -1.4628   23.0890 N   0  0  0  0  0  0  0  0  0  0  0  0
    0.0188  -11.2277   16.9416 C   0  0  0  0  0  0  0  0  0  0  0  0
   10.1873   -4.4225   20.6825 C   0  0  0  0  0  0  0  0  0  0  0  0
    6.4087   -8.0717   16.5626 C   0  0  0  0  0  0  0  0  0  0  0  0
   10.4706   -3.9879   23.8620 C   0  0  0  0  0  0  0  0  0  0  0  0
   11.5234   -2.8534   19.2050 N   0  0  0  0  0  0  0  0  0  0  0  0
   10.5232   -3.1925   21.3754 C   0  0  0  0  0  0  0  0  0  0  0  0
    9.1898   -5.2792   18.4194 C   0  0  0  0  0  0  0  0  0  0  0  0
    9.0631   -5.3425   17.2621 P   0  0  0  0  0  0  0  0  0  0  0  0
    9.6597   -2.3345   25.5390 He  0  0  0  0  0  0  0  0  0  0  0  0
    7.4205   -8.2075   15.2285 He  0  0  0  0  0  0  0  0  0  0  0  0
  1  3  3  0
  1  6  3  0
  1  9  1  0
  1 15  1  0
  1 27  1  0
  2 10  4  0
  2 12  3  0
  2 26  4  0
  2 31  4  0
  3 11  4  0
  3 14  4  0
  3 16  4  0
  4  5  4  0
  4 10  2  0
  4 13  4  0
  5 14  4  0
  5 15  1  0
  5 31  4  0
  6 22  4  0
  6 25  4  0
  6 26  3  0
  7 14  4  0
  7 28  4  0
  8 18  1  0
  8 27  1  0
  8 28  2  0
  9 14  1  0
 10 21  3  0
 10 23  4  0
 10 27  1  0
 10 29  4  0
 11 13  4  0
 11 25  4  0
 12 23  4  0
 12 25  2  0
 12 30  4  0
 12 32  4  0
 13 24  3  0
 14 19  4  0
 14 21  3  0
 14 26  4  0
 15 26  2  0
 16 22  4  0
 16 31  1  0
 16 32  1  0
 17 24  4  0
 17 28  4  0
 17 30  1  0
 18 19  1  0
 18 27  1  0
 18 31  1  0
 18 32  1  0
 19 24  2  0
 20 29  4  0
 20 30  4  0
 21 24  4  0
 21 26  1  0
 21 30  3  0
 24 30  3  0
 25 28  2  0
 26 27  4  0
 31 32  4  0
M  END
$$$$

 Created by Python create_sdf_string function

 34 40  0  0  0  0  0  0  0  0999 V2000
    5.3955   -8.7490   16.8564 C   0  0  0  0  0  0  0  0  0  0  0  0
    9.7238   -2.3009   25.4053 C   0  0  0  0  0  0  0  0  0  0  0  0
   10.0201   -4.5391   19.2580 C   0  0  0  0  0  0  0  0  0  0  0  0
    1.9877  -10.0493   16.5889 C   0  0  0  0  0  0  0  0  0  0  0  0
    3.1845  -10.7806   18.9037 C   0  0  0  0  0  0  0  0  0  0  0  0
    3.8366   -9.9758   17.9892 C   0  0  0  0  0  0  0  0  0  0  0  0
   -0.5576  -10.9594   15.9249 C   0  0  0  0  0  0  0  0  0  0  0  0
   10.1288   -3.5803   25.0941 C   0  0  0  0  0  0  0  0  0  0  0  0
    7.2081   -7.1220   17.4414 C   0  0  0  0  0  0  0  0  0  0  0  0
    4.1741   -8.8220   16.0482 C   0  0  0  0  0  0  0  0  0  0  0  0
    7.3668   -8.2334   15.3534 C   0  0  0  0  0  0  0  0  0  0  0  0
   10.7149   -3.5643   18.5695 C   0  0  0  0  0  0  0  0  0  0  0  0
    1.2686  -10.8726   17.4952 C   0  0  0  0  0  0  0  0  0  0  0  0
    9.8900   -4.5399   16.5005 C   0  0  0  0  0  0  0  0  0  0  0  0
    1.9437  -11.2075   18.6987 N   0  0  0  0  0  0  0  0  0  0  0  0
    3.2353   -9.6477   16.8766 C   0  0  0  0  0  0  0  0  0  0  0  0
    5.0955   -9.4145   17.9930 N   0  0  0  0  0  0  0  0  0  0  0  0
    1.3598   -9.7063   15.3596 C   0  0  0  0  0  0  0  0  0  0  0  0
   10.4007   -2.9639   22.8035 C   0  0  0  0  0  0  0  0  0  0  0  0
    8.2123   -6.3869   16.5952 C   0  0  0  0  0  0  0  0  0  0  0  0
    8.5215   -7.2745   15.4831 C   0  0  0  0  0  0  0  0  0  0  0  0
   11.2772   -2.4859   20.6008 N   0  0  0  0  0  0  0  0  0  0  0  0
    9.7301   -1.3106   24.4232 C   0  0  0  0  0  0  0  0  0  0  0  0
    0.1141  -10.1797   15.0154 C   0  0  0  0  0  0  0  0  0  0  0  0
   10.6840   -3.6504   17.1503 C   0  0  0  0  0  0  0  0  0  0  0  0
   10.1156   -1.6428   23.1379 N   0  0  0  0  0  0  0  0  0  0  0  0
   -0.0100  -11.3074   17.1311 C   0  0  0  0  0  0  0  0  0  0  0  0
   10.0870   -4.4521   20.7283 C   0  0  0  0  0  0  0  0  0  0  0  0
    6.4762   -8.0233   16.5586 C   0  0  0  0  0  0  0  0  0  0  0  0
   10.4576   -3.9136   23.8009 C   0  0  0  0  0  0  0  0  0  0  0  0
   11.3229   -2.5805   19.2274 N   0  0  0  0  0  0  0  0  0  0  0  0
   10.6277   -3.3222   21.3956 C   0  0  0  0  0  0  0  0  0  0  0  0
    9.3171   -5.4796   18.5855 C   0  0  0  0  0  0  0  0  0  0  0  0
    9.1666   -5.4981   17.2025 C   0  0  0  0  0  0  0  0  0  0  0  0
  1 10  1  0
  1 17  1  0
  1 29  1  0
  2  8  4  0
  2 23  4  0
  3 12  4  0
  3 28  4  0
  3 33  4  0
  4 13  4  0
  4 16  4  0
  4 18  4  0
  5  6  4  0
  5 15  4  0
  6 16  4  0
  6 17  1  0
  7 24  4  0
  7 27  4  0
  8 30  4  0
  9 20  1  0
  9 29  1  0
 10 16  1  0
 11 21  1  0
 11 29  1  0
 12 25  4  0
 12 31  4  0
 13 15  4  0
 13 27  4  0
 14 25  4  0
 14 34  4  0
 18 24  4  0
 19 26  4  0
 19 30  4  0
 19 32  1  0
 20 21  1  0
 20 34  1  0
 22 31  4  0
 22 32  4  0
 23 26  4  0
 28 32  4  0
 33 34  4  0
M  END
$$$$

 Created by Python create_sdf_string function

 34 58  0  0  0  0  0  0  0  0999 V2000
    5.6373   -8.9471   16.8702 C   0  0  0  0  0  0  0  0  0  0  0  0
    9.8760   -2.4610   25.3629 C   0  0  0  0  0  0  0  0  0  0  0  0
   10.3054   -4.5206   19.2249 C   0  0  0  0  0  0  0  0  0  0  0  0
    3.0308  -10.6104   18.7743 C   0  0  0  0  0  0  0  0  0  0  0  0
    3.5951  -10.1263   17.8756 C   0  0  0  0  0  0  0  0  0  0  0  0
   -0.4416  -11.0456   16.0031 C   0  0  0  0  0  0  0  0  0  0  0  0
   10.3882   -3.7136   24.8998 C   0  0  0  0  0  0  0  0  0  0  0  0
    7.1489   -6.9465   17.6175 C   0  0  0  0  0  0  0  0  0  0  0  0
    4.4149   -8.8921   15.9198 C   0  0  0  0  0  0  0  0  0  0  0  0
   10.7335   -3.8811   18.8643 N   0  0  0  0  0  0  0  0  0  0  0  0
   10.1730   -4.7065   16.6467 C   0  0  0  0  0  0  0  0  0  0  0  0
    2.0383  -11.4048   18.5293 N   0  0  0  0  0  0  0  0  0  0  0  0
    3.1320   -9.8959   16.5150 C   0  0  0  0  0  0  0  0  0  0  0  0
    5.1808   -9.6273   18.0298 C   0  0  0  0  0  0  0  0  0  0  0  0
    1.3338   -9.8636   15.3350 C   0  0  0  0  0  0  0  0  0  0  0  0
   10.5951   -2.9452   22.8765 C   0  0  0  0  0  0  0  0  0  0  0  0
    8.2346   -6.2328   16.5976 C   0  0  0  0  0  0  0  0  0  0  0  0
    8.5147   -6.9846   15.7339 C   0  0  0  0  0  0  0  0  0  0  0  0
   11.5677   -2.4349   20.7648 N   0  0  0  0  0  0  0  0  0  0  0  0
    9.6204   -1.4142   24.4258 C   0  0  0  0  0  0  0  0  0  0  0  0
    0.0543  -10.5428   15.1235 C   0  0  0  0  0  0  0  0  0  0  0  0
   10.1036   -1.7325   23.1847 N   0  0  0  0  0  0  0  0  0  0  0  0
   -0.0667  -11.5535   17.0872 C   0  0  0  0  0  0  0  0  0  0  0  0
   10.2028   -4.4957   20.8484 C   0  0  0  0  0  0  0  0  0  0  0  0
    6.2701   -7.9811   16.6189 C   0  0  0  0  0  0  0  0  0  0  0  0
   10.5115   -3.6703   23.8630 C   0  0  0  0  0  0  0  0  0  0  0  0
   11.1624   -2.5788   19.1430 N   0  0  0  0  0  0  0  0  0  0  0  0
   10.8139   -3.3750   21.1749 C   0  0  0  0  0  0  0  0  0  0  0  0
    9.2053   -5.6759   18.9058 C   0  0  0  0  0  0  0  0  0  0  0  0
    9.4207   -5.4041   17.0761 C   0  0  0  0  0  0  0  0  0  0  0  0
    1.8943   -9.9191   16.3958 He  0  0  0  0  0  0  0  0  0  0  0  0
    7.5040   -8.4261   15.3517 He  0  0  0  0  0  0  0  0  0  0  0  0
    1.0326  -10.8002   17.1799 He  0  0  0  0  0  0  0  0  0  0  0  0
   10.7086   -3.6700   17.0625 He  0  0  0  0  0  0  0  0  0  0  0  0
  1  5  2  0
  1  8  1  0
  1  9  1  0
  1 14  1  0
  1 23  3  0
  1 25  1  0
  2  7  4  0
  2 13  3  0
  2 20  1  0
  2 26  4  0
  3 10  4  0
  3 11  2  0
  3 12  3  0
  3 24  4  0
  3 29  4  0
  4  5  4  0
  4 10  4  0
  4 12  4  0
  4 22  2  0
  4 25  1  0
  5 13  4  0
  5 14  1  0
  5 25  3  0
  6 21  4  0
  6 23  4  0
  6 24  3  0
  6 25  2  0
  6 28  1  0
  6 30  3  0
  7 17  3  0
  7 24  3  0
  7 26  4  0
  8 17  1  0
  8 20  2  0
  8 25  1  0
  9 13  1  0
 10 27  4  0
 11 30  4  0
 12 15  4  0
 12 18  2  0
 12 27  4  0
 13 14  1  0
 13 19  2  0
 15 21  4  0
 16 22  4  0
 16 26  4  0
 16 28  1  0
 17 18  1  0
 17 30  1  0
 18 24  1  0
 19 27  4  0
 19 28  4  0
 20 22  4  0
 20 25  3  0
 20 28  4  0
 24 28  3  0
 26 30  2  0
 29 30  4  0
M  END
$$$$

 Created by Python create_sdf_string function

 34 40  0  0  0  0  0  0  0  0999 V2000
    5.5046   -8.8988   16.7708 C   0  0  0  0  0  0  0  0  0  0  0  0
    9.7977   -2.3688   25.3904 C   0  0  0  0  0  0  0  0  0  0  0  0
   10.0950   -4.5813   19.3663 C   0  0  0  0  0  0  0  0  0  0  0  0
    1.9489  -10.1850   16.4817 C   0  0  0  0  0  0  0  0  0  0  0  0
    3.1460  -10.8380   18.7787 C   0  0  0  0  0  0  0  0  0  0  0  0
    3.8237  -10.0717   17.9013 C   0  0  0  0  0  0  0  0  0  0  0  0
   -0.6153  -11.1469   15.8811 C   0  0  0  0  0  0  0  0  0  0  0  0
   10.3003   -3.6139   25.0862 C   0  0  0  0  0  0  0  0  0  0  0  0
    7.1009   -7.0191   17.4856 C   0  0  0  0  0  0  0  0  0  0  0  0
    4.2898   -9.0092   15.9565 C   0  0  0  0  0  0  0  0  0  0  0  0
    7.4455   -8.2105   15.4688 C   0  0  0  0  0  0  0  0  0  0  0  0
   10.7655   -3.5991   18.6354 C   0  0  0  0  0  0  0  0  0  0  0  0
    1.2171  -10.9596   17.3907 C   0  0  0  0  0  0  0  0  0  0  0  0
   10.0039   -4.6382   16.5933 C   0  0  0  0  0  0  0  0  0  0  0  0
    1.8710  -11.1934   18.5785 N   0  0  0  0  0  0  0  0  0  0  0  0
    3.2305   -9.7497   16.7337 C   0  0  0  0  0  0  0  0  0  0  0  0
    5.2146   -9.5188   17.9996 C   0  0  0  0  0  0  0  0  0  0  0  0
    1.2984   -9.8397   15.2725 C   0  0  0  0  0  0  0  0  0  0  0  0
   10.4893   -2.9739   22.7955 C   0  0  0  0  0  0  0  0  0  0  0  0
    8.1513   -6.2696   16.6934 C   0  0  0  0  0  0  0  0  0  0  0  0
    8.4898   -7.1358   15.5518 C   0  0  0  0  0  0  0  0  0  0  0  0
   11.3328   -2.4513   20.5837 N   0  0  0  0  0  0  0  0  0  0  0  0
    9.6882   -1.4020   24.4159 C   0  0  0  0  0  0  0  0  0  0  0  0
    0.0133  -10.3422   14.9822 C   0  0  0  0  0  0  0  0  0  0  0  0
   10.7546   -3.7104   17.2352 C   0  0  0  0  0  0  0  0  0  0  0  0
   10.0864   -1.6972   23.1396 N   0  0  0  0  0  0  0  0  0  0  0  0
   -0.0498  -11.4333   17.1108 C   0  0  0  0  0  0  0  0  0  0  0  0
   10.2251   -4.4819   20.7858 C   0  0  0  0  0  0  0  0  0  0  0  0
    6.3982   -7.9273   16.5542 C   0  0  0  0  0  0  0  0  0  0  0  0
   10.6408   -3.9021   23.8074 C   0  0  0  0  0  0  0  0  0  0  0  0
   11.3801   -2.5906   19.2010 N   0  0  0  0  0  0  0  0  0  0  0  0
   10.7166   -3.3036   21.3876 C   0  0  0  0  0  0  0  0  0  0  0  0
    9.3522   -5.5263   18.6800 C   0  0  0  0  0  0  0  0  0  0  0  0
    9.1985   -5.5087   17.3029 C   0  0  0  0  0  0  0  0  0  0  0  0
  1 10  1  0
  1 17  1  0
  1 29  1  0
  2  8  4  0
  2 23  4  0
  3 12  4  0
  3 28  4  0
  3 33  4  0
  4 13  4  0
  4 16  4  0
  4 18  4  0
  5  6  4  0
  5 15  4  0
  6 16  4  0
  6 17  1  0
  7 24  4  0
  7 27  4  0
  8 30  4  0
  9 20  1  0
  9 29  1  0
 10 16  1  0
 11 21  1  0
 11 29  1  0
 12 25  4  0
 12 31  4  0
 13 15  4  0
 13 27  4  0
 14 25  4  0
 14 34  4  0
 18 24  4  0
 19 26  4  0
 19 30  4  0
 19 32  1  0
 20 21  1  0
 20 34  1  0
 22 31  4  0
 22 32  4  0
 23 26  4  0
 28 32  4  0
 33 34  4  0
M  END
$$$$

 Created by Python create_sdf_string function

 34 70  0  0  0  0  0  0  0  0999 V2000
    5.7909   -9.1979   16.6105 I   0  0  0  0  0  0  0  0  0  0  0  0
    9.9993   -2.3645   25.5740 C   0  0  0  0  0  0  0  0  0  0  0  0
   10.0115   -4.6760   19.3080 C   0  0  0  0  0  0  0  0  0  0  0  0
    1.7318  -10.4485   16.5000 C   0  0  0  0  0  0  0  0  0  0  0  0
    3.3075  -11.0124   18.9099 C   0  0  0  0  0  0  0  0  0  0  0  0
    3.7030  -10.0689   17.8684 C   0  0  0  0  0  0  0  0  0  0  0  0
   -0.4868  -11.2723   16.1090 C   0  0  0  0  0  0  0  0  0  0  0  0
   10.2168   -3.7203   25.1984 C   0  0  0  0  0  0  0  0  0  0  0  0
    7.1221   -6.8851   17.0880 C   0  0  0  0  0  0  0  0  0  0  0  0
    4.0033   -9.1310   16.1071 C   0  0  0  0  0  0  0  0  0  0  0  0
    7.5772   -8.0008   15.1476 C   0  0  0  0  0  0  0  0  0  0  0  0
   10.7968   -3.6272   18.8219 C   0  0  0  0  0  0  0  0  0  0  0  0
    1.1071  -10.9485   17.0649 C   0  0  0  0  0  0  0  0  0  0  0  0
    9.9465   -4.8410   16.6272 C   0  0  0  0  0  0  0  0  0  0  0  0
    2.0234  -11.2405   18.4479 N   0  0  0  0  0  0  0  0  0  0  0  0
    3.2495  -10.0654   16.9590 C   0  0  0  0  0  0  0  0  0  0  0  0
    5.3669   -9.8294   17.8776 C   0  0  0  0  0  0  0  0  0  0  0  0
    1.3518   -9.8067   15.3839 C   0  0  0  0  0  0  0  0  0  0  0  0
   10.5161   -3.0910   22.8982 C   0  0  0  0  0  0  0  0  0  0  0  0
    7.9867   -6.1830   16.7020 C   0  0  0  0  0  0  0  0  0  0  0  0
    7.9105   -7.0900   15.4745 S   0  0  0  0  0  0  0  0  0  0  0  0
   11.2501   -2.7188   20.5115 N   0  0  0  0  0  0  0  0  0  0  0  0
    9.5752   -1.4542   24.5662 C   0  0  0  0  0  0  0  0  0  0  0  0
   10.7039   -3.7038   17.1867 C   0  0  0  0  0  0  0  0  0  0  0  0
   10.0277   -1.7124   23.0800 N   0  0  0  0  0  0  0  0  0  0  0  0
   -0.0749  -11.6734   17.0820 C   0  0  0  0  0  0  0  0  0  0  0  0
   10.2857   -4.3864   20.9955 C   0  0  0  0  0  0  0  0  0  0  0  0
    6.5065   -7.9663   16.4575 C   0  0  0  0  0  0  0  0  0  0  0  0
   10.6825   -3.8422   23.7478 C   0  0  0  0  0  0  0  0  0  0  0  0
   11.3724   -2.7361   19.1309 N   0  0  0  0  0  0  0  0  0  0  0  0
   11.0422   -3.4127   21.2841 C   0  0  0  0  0  0  0  0  0  0  0  0
    9.3710   -5.5421   18.7503 C   0  0  0  0  0  0  0  0  0  0  0  0
    9.4495   -5.5776   16.8753 C   0  0  0  0  0  0  0  0  0  0  0  0
    0.0335   -9.9413   15.1091 He  0  0  0  0  0  0  0  0  0  0  0  0
  1  9  2  0
  1 10  1  0
  1 17  1  0
  1 21  3  0
  1 23  4  0
  1 24  4  0
  1 28  1  0
  2  8  4  0
  2 16  2  0
  2 23  4  0
  2 25  1  0
  3 12  4  0
  3 19  3  0
  3 27  4  0
  3 32  4  0
  4 11  3  0
  4 13  4  0
  4 16  4  0
  4 18  1  0
  4 27  2  0
  5  6  4  0
  5 14  1  0
  5 15  4  0
  6 16  4  0
  6 17  1  0
  7  8  2  0
  7 14  2  0
  7 17  3  0
  7 26  4  0
  7 33  3  0
  8 14  1  0
  8 15  3  0
  8 29  4  0
  9 10  1  0
  9 20  1  0
  9 28  1  0
  9 31  2  0
 10 12  1  0
 10 16  1  0
 11 20  3  0
 11 21  1  0
 11 28  1  0
 12 24  3  0
 12 30  4  0
 13 15  4  0
 13 19  4  0
 13 26  4  0
 14 24  4  0
 14 33  4  0
 15 20  3  0
 15 23  2  0
 15 24  3  0
 15 29  2  0
 15 31  4  0
 16 30  2  0
 17 33  2  0
 19 22  2  0
 19 25  4  0
 19 26  2  0
 19 29  4  0
 19 31  1  0
 20 21  1  0
 22 25  1  0
 22 30  4  0
 22 31  4  0
 23 25  4  0
 25 30  1  0
 27 31  4  0
 30 32  4  0
 32 33  4  0
M  END
$$$$

 Created by Python create_sdf_string function

 34 40  0  0  0  0  0  0  0  0999 V2000
    5.5156   -9.0042   16.6852 N   0  0  0  0  0  0  0  0  0  0  0  0
    9.8358   -2.4101   25.4561 C   0  0  0  0  0  0  0  0  0  0  0  0
   10.0802   -4.6250   19.3328 C   0  0  0  0  0  0  0  0  0  0  0  0
    1.9743  -10.1960   16.5532 C   0  0  0  0  0  0  0  0  0  0  0  0
    3.2181  -10.9927   18.8088 C   0  0  0  0  0  0  0  0  0  0  0  0
    3.9289  -10.2344   17.9038 C   0  0  0  0  0  0  0  0  0  0  0  0
   -0.6083  -11.0990   15.9600 C   0  0  0  0  0  0  0  0  0  0  0  0
   10.3571   -3.6582   25.1371 C   0  0  0  0  0  0  0  0  0  0  0  0
    7.0103   -7.0792   17.3679 C   0  0  0  0  0  0  0  0  0  0  0  0
    4.2211   -9.0823   15.9922 C   0  0  0  0  0  0  0  0  0  0  0  0
    7.3674   -8.1282   15.2605 C   0  0  0  0  0  0  0  0  0  0  0  0
   10.7589   -3.6544   18.6044 C   0  0  0  0  0  0  0  0  0  0  0  0
    1.2822  -11.0650   17.4374 C   0  0  0  0  0  0  0  0  0  0  0  0
    9.9346   -4.6654   16.5350 C   0  0  0  0  0  0  0  0  0  0  0  0
    1.9658  -11.3989   18.5942 N   0  0  0  0  0  0  0  0  0  0  0  0
    3.2657   -9.8492   16.7950 C   0  0  0  0  0  0  0  0  0  0  0  0
    5.3199   -9.6753   17.9129 C   0  0  0  0  0  0  0  0  0  0  0  0
    1.2704   -9.7833   15.3965 C   0  0  0  0  0  0  0  0  0  0  0  0
   10.4763   -3.0430   22.8274 C   0  0  0  0  0  0  0  0  0  0  0  0
    8.0786   -6.3010   16.6564 C   0  0  0  0  0  0  0  0  0  0  0  0
    8.2401   -6.9321   15.3426 C   0  0  0  0  0  0  0  0  0  0  0  0
   11.3354   -2.5526   20.5982 N   0  0  0  0  0  0  0  0  0  0  0  0
    9.6993   -1.4503   24.4422 C   0  0  0  0  0  0  0  0  0  0  0  0
    0.0099  -10.2245   15.1063 C   0  0  0  0  0  0  0  0  0  0  0  0
   10.7371   -3.7560   17.1795 C   0  0  0  0  0  0  0  0  0  0  0  0
   10.0796   -1.7619   23.1577 N   0  0  0  0  0  0  0  0  0  0  0  0
    0.0131  -11.5428   17.1240 C   0  0  0  0  0  0  0  0  0  0  0  0
   10.1801   -4.5236   20.7733 C   0  0  0  0  0  0  0  0  0  0  0  0
    6.4301   -8.0589   16.4532 C   0  0  0  0  0  0  0  0  0  0  0  0
   10.6496   -3.9821   23.8355 C   0  0  0  0  0  0  0  0  0  0  0  0
   11.3543   -2.6601   19.2328 N   0  0  0  0  0  0  0  0  0  0  0  0
   10.6976   -3.3618   21.4211 C   0  0  0  0  0  0  0  0  0  0  0  0
    9.3000   -5.5365   18.6210 C   0  0  0  0  0  0  0  0  0  0  0  0
    9.1115   -5.5124   17.2637 C   0  0  0  0  0  0  0  0  0  0  0  0
  1 10  1  0
  1 17  1  0
  1 29  1  0
  2  8  4  0
  2 23  4  0
  3 12  4  0
  3 28  4  0
  3 33  4  0
  4 13  4  0
  4 16  4  0
  4 18  4  0
  5  6  4  0
  5 15  4  0
  6 16  4  0
  6 17  1  0
  7 24  4  0
  7 27  4  0
  8 30  4  0
  9 20  1  0
  9 29  1  0
 10 16  1  0
 11 21  1  0
 11 29  1  0
 12 25  4  0
 12 31  4  0
 13 15  4  0
 13 27  4  0
 14 25  4  0
 14 34  4  0
 18 24  4  0
 19 26  4  0
 19 30  4  0
 19 32  1  0
 20 21  1  0
 20 34  1  0
 22 31  4  0
 22 32  4  0
 23 26  4  0
 28 32  4  0
 33 34  4  0
M  END
$$$$

 Created by Python create_sdf_string function

 34 74  0  0  0  0  0  0  0  0999 V2000
    5.9857   -8.6279   16.3316 O   0  0  0  0  0  0  0  0  0  0  0  0
    9.6615   -2.4175   25.2573 C   0  0  0  0  0  0  0  0  0  0  0  0
    9.9848   -4.5647   19.4942 C   0  0  0  0  0  0  0  0  0  0  0  0
    2.1980  -10.2686   16.6276 C   0  0  0  0  0  0  0  0  0  0  0  0
   -0.2385  -10.8853   16.0258 C   0  0  0  0  0  0  0  0  0  0  0  0
   10.3987   -3.7379   25.0892 C   0  0  0  0  0  0  0  0  0  0  0  0
    7.0060   -7.1920   17.2623 C   0  0  0  0  0  0  0  0  0  0  0  0
    4.2823   -9.0912   16.1539 C   0  0  0  0  0  0  0  0  0  0  0  0
    7.7009   -8.0522   15.4352 C   0  0  0  0  0  0  0  0  0  0  0  0
    1.6034  -10.9979   17.5873 C   0  0  0  0  0  0  0  0  0  0  0  0
    9.9151   -4.4903   16.3643 P   0  0  0  0  0  0  0  0  0  0  0  0
    2.1707  -11.4682   18.5588 N   0  0  0  0  0  0  0  0  0  0  0  0
    3.1216   -9.9906   16.8586 C   0  0  0  0  0  0  0  0  0  0  0  0
    5.5115   -9.4986   18.0219 C   0  0  0  0  0  0  0  0  0  0  0  0
    1.3443   -9.8168   15.4999 C   0  0  0  0  0  0  0  0  0  0  0  0
   10.4841   -2.9565   22.8479 C   0  0  0  0  0  0  0  0  0  0  0  0
    8.0661   -6.2975   16.5579 C   0  0  0  0  0  0  0  0  0  0  0  0
    8.3714   -6.6975   15.2700 C   0  0  0  0  0  0  0  0  0  0  0  0
   11.3708   -2.7012   20.6700 N   0  0  0  0  0  0  0  0  0  0  0  0
    9.6661   -1.6401   24.4501 C   0  0  0  0  0  0  0  0  0  0  0  0
    0.1706  -10.2204   15.3419 C   0  0  0  0  0  0  0  0  0  0  0  0
   10.7267   -3.8554   17.0258 C   0  0  0  0  0  0  0  0  0  0  0  0
   10.0164   -1.7847   23.1173 N   0  0  0  0  0  0  0  0  0  0  0  0
    0.1214  -11.6356   17.0594 C   0  0  0  0  0  0  0  0  0  0  0  0
   10.2283   -4.3346   20.8289 C   0  0  0  0  0  0  0  0  0  0  0  0
    6.3398   -8.0873   16.3776 C   0  0  0  0  0  0  0  0  0  0  0  0
   10.6338   -3.8230   23.7783 C   0  0  0  0  0  0  0  0  0  0  0  0
   11.2678   -2.7278   19.3520 F   0  0  0  0  0  0  0  0  0  0  0  0
   10.7078   -3.3702   21.5893 C   0  0  0  0  0  0  0  0  0  0  0  0
    9.0085   -5.6064   18.5763 C   0  0  0  0  0  0  0  0  0  0  0  0
    9.5456   -5.6857   17.2650 C   0  0  0  0  0  0  0  0  0  0  0  0
    3.1059  -11.1065   18.9249 He  0  0  0  0  0  0  0  0  0  0  0  0
    4.0170  -10.3795   18.1458 He  0  0  0  0  0  0  0  0  0  0  0  0
   10.3196   -3.5138   18.5777 He  0  0  0  0  0  0  0  0  0  0  0  0
  1  8  1  0
  1 14  1  0
  1 17  1  0
  1 21  3  0
  1 25  4  0
  1 26  1  0
  2  6  4  0
  2  7  4  0
  2 10  1  0
  2 16  3  0
  2 20  4  0
  3 13  1  0
  3 18  1  0
  3 25  4  0
  3 30  4  0
  4  9  2  0
  4 10  4  0
  4 13  4  0
  4 16  1  0
  5 17  3  0
  5 21  4  0
  5 24  2  0
  5 25  4  0
  5 30  1  0
  6 11  1  0
  6 18  4  0
  6 26  4  0
  6 27  4  0
  6 28  1  0
  7 17  1  0
  7 18  2  0
  7 22  2  0
  7 26  1  0
  8 13  1  0
  8 16  1  0
  8 26  2  0
  8 28  2  0
  9 13  3  0
  9 18  1  0
  9 26  1  0
  9 27  2  0
 10 12  4  0
 10 14  1  0
 10 15  1  0
 10 23  2  0
 10 30  3  0
 11 22  4  0
 11 27  1  0
 11 31  4  0
 12 14  3  0
 12 16  3  0
 12 17  4  0
 12 22  2  0
 13 17  1  0
 13 20  3  0
 13 29  1  0
 14 30  2  0
 15 21  4  0
 15 31  1  0
 16 25  3  0
 16 27  4  0
 16 29  1  0
 17 18  1  0
 18 23  2  0
 18 24  1  0
 18 31  3  0
 19 28  4  0
 19 29  3  0
 20 23  4  0
 21 30  1  0
 22 26  2  0
 23 28  2  0
 25 29  4  0
 30 31  4  0
M  END
$$$$

 Created by Python create_sdf_string function

 34 40  0  0  0  0  0  0  0  0999 V2000
    5.6135   -8.9289   16.6860 N   0  0  0  0  0  0  0  0  0  0  0  0
    9.7495   -2.4574   25.4120 C   0  0  0  0  0  0  0  0  0  0  0  0
    9.9855   -4.5876   19.3190 C   0  0  0  0  0  0  0  0  0  0  0  0
    2.1162  -10.2144   16.6510 C   0  0  0  0  0  0  0  0  0  0  0  0
    3.3911  -11.0300   18.8554 C   0  0  0  0  0  0  0  0  0  0  0  0
    4.0588  -10.2022   18.0035 C   0  0  0  0  0  0  0  0  0  0  0  0
   -0.4676  -11.0529   16.0487 C   0  0  0  0  0  0  0  0  0  0  0  0
   10.3150   -3.6812   25.0993 C   0  0  0  0  0  0  0  0  0  0  0  0
    7.0302   -7.0935   17.3290 C   0  0  0  0  0  0  0  0  0  0  0  0
    4.3224   -9.0458   16.0512 C   0  0  0  0  0  0  0  0  0  0  0  0
    7.5598   -8.1912   15.2877 C   0  0  0  0  0  0  0  0  0  0  0  0
   10.6877   -3.6265   18.5934 C   0  0  0  0  0  0  0  0  0  0  0  0
    1.4463  -11.0775   17.5245 C   0  0  0  0  0  0  0  0  0  0  0  0
    9.9138   -4.6310   16.5211 C   0  0  0  0  0  0  0  0  0  0  0  0
    2.1505  -11.4494   18.6562 N   0  0  0  0  0  0  0  0  0  0  0  0
    3.3968   -9.8472   16.8998 C   0  0  0  0  0  0  0  0  0  0  0  0
    5.4321   -9.5742   17.9659 C   0  0  0  0  0  0  0  0  0  0  0  0
    1.4239   -9.7460   15.5157 C   0  0  0  0  0  0  0  0  0  0  0  0
   10.4615   -3.0480   22.7963 C   0  0  0  0  0  0  0  0  0  0  0  0
    8.0933   -6.2994   16.6465 N   0  0  0  0  0  0  0  0  0  0  0  0
    8.3668   -6.9113   15.3531 C   0  0  0  0  0  0  0  0  0  0  0  0
   11.3147   -2.5555   20.5746 N   0  0  0  0  0  0  0  0  0  0  0  0
    9.5965   -1.5064   24.4200 C   0  0  0  0  0  0  0  0  0  0  0  0
    0.1379  -10.1640   15.2265 C   0  0  0  0  0  0  0  0  0  0  0  0
   10.6309   -3.6931   17.1649 C   0  0  0  0  0  0  0  0  0  0  0  0
   10.0256   -1.7795   23.1411 N   0  0  0  0  0  0  0  0  0  0  0  0
    0.1459  -11.5079   17.2020 C   0  0  0  0  0  0  0  0  0  0  0  0
   10.0608   -4.4619   20.7568 C   0  0  0  0  0  0  0  0  0  0  0  0
    6.4574   -8.0133   16.2980 C   0  0  0  0  0  0  0  0  0  0  0  0
   10.6607   -3.9796   23.7970 C   0  0  0  0  0  0  0  0  0  0  0  0
   11.3181   -2.6581   19.2321 N   0  0  0  0  0  0  0  0  0  0  0  0
   10.6472   -3.3651   21.4127 C   0  0  0  0  0  0  0  0  0  0  0  0
    9.2169   -5.4852   18.6247 C   0  0  0  0  0  0  0  0  0  0  0  0
    9.0916   -5.4872   17.2534 C   0  0  0  0  0  0  0  0  0  0  0  0
  1 10  1  0
  1 17  1  0
  1 29  1  0
  2  8  4  0
  2 23  4  0
  3 12  4  0
  3 28  4  0
  3 33  4  0
  4 13  4  0
  4 16  4  0
  4 18  4  0
  5  6  4  0
  5 15  4  0
  6 16  4  0
  6 17  1  0
  7 24  4  0
  7 27  4  0
  8 30  4  0
  9 20  1  0
  9 29  1  0
 10 16  1  0
 11 21  1  0
 11 29  1  0
 12 25  4  0
 12 31  4  0
 13 15  4  0
 13 27  4  0
 14 25  4  0
 14 34  4  0
 18 24  4  0
 19 26  4  0
 19 30  4  0
 19 32  1  0
 20 21  1  0
 20 34  1  0
 22 31  4  0
 22 32  4  0
 23 26  4  0
 28 32  4  0
 33 34  4  0
M  END
$$$$

 Created by Python create_sdf_string function

 34 45  0  0  0  0  0  0  0  0999 V2000
    5.5144   -9.0238   16.6901 N   0  0  0  0  0  0  0  0  0  0  0  0
    1.9679  -10.5240   16.7068 C   0  0  0  0  0  0  0  0  0  0  0  0
    3.4302  -11.1182   18.8890 C   0  0  0  0  0  0  0  0  0  0  0  0
    4.1523  -10.2541   17.9662 C   0  0  0  0  0  0  0  0  0  0  0  0
   10.4872   -3.8970   25.1335 C   0  0  0  0  0  0  0  0  0  0  0  0
    6.9410   -6.7671   16.9715 C   0  0  0  0  0  0  0  0  0  0  0  0
    4.0311   -9.0496   15.9088 C   0  0  0  0  0  0  0  0  0  0  0  0
   11.0293   -3.7278   18.6475 C   0  0  0  0  0  0  0  0  0  0  0  0
    1.3822  -10.6076   17.4047 C   0  0  0  0  0  0  0  0  0  0  0  0
    9.7378   -4.2577   16.3862 C   0  0  0  0  0  0  0  0  0  0  0  0
    3.9269   -9.8435   16.6431 C   0  0  0  0  0  0  0  0  0  0  0  0
    5.5937   -9.3288   18.1265 C   0  0  0  0  0  0  0  0  0  0  0  0
    1.6848   -9.7136   15.6000 C   0  0  0  0  0  0  0  0  0  0  0  0
    8.1399   -6.3325   16.4129 N   0  0  0  0  0  0  0  0  0  0  0  0
    8.5454   -6.8424   15.3672 F   0  0  0  0  0  0  0  0  0  0  0  0
   11.1348   -2.6839   20.5666 N   0  0  0  0  0  0  0  0  0  0  0  0
    9.8351   -1.4076   24.4563 C   0  0  0  0  0  0  0  0  0  0  0  0
    0.1827   -9.9679   15.4201 C   0  0  0  0  0  0  0  0  0  0  0  0
   10.4109   -3.6984   17.1376 C   0  0  0  0  0  0  0  0  0  0  0  0
    9.9326   -1.8432   22.9954 N   0  0  0  0  0  0  0  0  0  0  0  0
    0.1793  -11.4492   17.1848 C   0  0  0  0  0  0  0  0  0  0  0  0
   10.0532   -4.3790   20.8555 B   0  0  0  0  0  0  0  0  0  0  0  0
    6.4039   -8.1374   16.2904 C   0  0  0  0  0  0  0  0  0  0  0  0
   10.7732   -3.9404   23.9569 C   0  0  0  0  0  0  0  0  0  0  0  0
   11.3419   -2.6322   19.3200 N   0  0  0  0  0  0  0  0  0  0  0  0
   10.5016   -3.5036   21.2894 C   0  0  0  0  0  0  0  0  0  0  0  0
    8.9062   -5.2913   18.4196 C   0  0  0  0  0  0  0  0  0  0  0  0
    9.3280   -5.3444   17.3812 C   0  0  0  0  0  0  0  0  0  0  0  0
    9.7169   -2.5818   25.4044 He  0  0  0  0  0  0  0  0  0  0  0  0
   10.2349   -4.5291   19.2184 He  0  0  0  0  0  0  0  0  0  0  0  0
   -0.5266  -11.1171   16.0590 He  0  0  0  0  0  0  0  0  0  0  0  0
    7.8094   -8.2757   15.1007 He  0  0  0  0  0  0  0  0  0  0  0  0
    2.0483  -11.3856   18.7109 He  0  0  0  0  0  0  0  0  0  0  0  0
   10.2989   -3.0006   23.0003 He  0  0  0  0  0  0  0  0  0  0  0  0
  1  7  1  0
  1 12  1  0
  1 18  2  0
  1 19  3  0
  1 23  1  0
  2  9  4  0
  2 11  4  0
  2 13  4  0
  2 23  1  0
  3  4  4  0
  3 28  1  0
  4 11  4  0
  4 18  1  0
  5  8  2  0
  5  9  2  0
  5 24  4  0
  5 26  2  0
  6 14  1  0
  6 23  1  0
  7 25  4  0
  8 19  4  0
  8 25  4  0
  9 21  4  0
  9 25  4  0
 10 11  4  0
 10 17  1  0
 10 19  4  0
 10 22  4  0
 10 28  4  0
 11 17  4  0
 11 24  1  0
 12 20  4  0
 12 24  4  0
 13 18  4  0
 13 19  1  0
 14 15  1  0
 14 28  1  0
 16 26  4  0
 16 28  2  0
 17 20  3  0
 19 28  4  0
 22 24  4  0
 22 26  4  0
 25 27  3  0
 27 28  4  0
M  END
$$$$

 Created by Python create_sdf_string function

 34 40  0  0  0  0  0  0  0  0999 V2000
    5.6274   -8.8387   16.6568 N   0  0  0  0  0  0  0  0  0  0  0  0
    9.8941   -2.4988   25.4572 C   0  0  0  0  0  0  0  0  0  0  0  0
    9.9234   -4.5222   19.2546 C   0  0  0  0  0  0  0  0  0  0  0  0
    2.1672  -10.1624   16.6366 C   0  0  0  0  0  0  0  0  0  0  0  0
    3.4694  -10.9939   18.8719 C   0  0  0  0  0  0  0  0  0  0  0  0
    4.1119  -10.1638   17.9573 C   0  0  0  0  0  0  0  0  0  0  0  0
   -0.4685  -10.9353   16.1742 N   0  0  0  0  0  0  0  0  0  0  0  0
   10.3960   -3.7305   25.0960 C   0  0  0  0  0  0  0  0  0  0  0  0
    6.9744   -6.8980   17.0944 C   0  0  0  0  0  0  0  0  0  0  0  0
    4.3708   -9.0865   15.9970 C   0  0  0  0  0  0  0  0  0  0  0  0
    7.6654   -8.2603   15.2191 C   0  0  0  0  0  0  0  0  0  0  0  0
   10.6431   -3.5785   18.5644 C   0  0  0  0  0  0  0  0  0  0  0  0
    1.4746  -11.0046   17.5618 C   0  0  0  0  0  0  0  0  0  0  0  0
    9.8173   -4.4698   16.4861 C   0  0  0  0  0  0  0  0  0  0  0  0
    2.1919  -11.3910   18.7075 N   0  0  0  0  0  0  0  0  0  0  0  0
    3.4527   -9.8109   16.8533 C   0  0  0  0  0  0  0  0  0  0  0  0
    5.4900   -9.4569   17.9117 C   0  0  0  0  0  0  0  0  0  0  0  0
    1.4716   -9.7278   15.4872 C   0  0  0  0  0  0  0  0  0  0  0  0
   10.4035   -3.0808   22.7990 C   0  0  0  0  0  0  0  0  0  0  0  0
    8.1705   -6.2588   16.5321 N   0  0  0  0  0  0  0  0  0  0  0  0
    8.5415   -6.9704   15.3449 C   0  0  0  0  0  0  0  0  0  0  0  0
   11.2654   -2.5917   20.5930 N   0  0  0  0  0  0  0  0  0  0  0  0
    9.6629   -1.5473   24.4786 C   0  0  0  0  0  0  0  0  0  0  0  0
    0.1663  -10.1275   15.2513 C   0  0  0  0  0  0  0  0  0  0  0  0
   10.6196   -3.6098   17.1526 C   0  0  0  0  0  0  0  0  0  0  0  0
    9.9910   -1.8016   23.1537 N   0  0  0  0  0  0  0  0  0  0  0  0
    0.1671  -11.3750   17.3002 C   0  0  0  0  0  0  0  0  0  0  0  0
   10.0113   -4.4798   20.7012 C   0  0  0  0  0  0  0  0  0  0  0  0
    6.4960   -8.0367   16.1811 C   0  0  0  0  0  0  0  0  0  0  0  0
   10.6337   -4.0389   23.7711 C   0  0  0  0  0  0  0  0  0  0  0  0
   11.3509   -2.6852   19.2645 N   0  0  0  0  0  0  0  0  0  0  0  0
   10.5787   -3.4027   21.4066 C   0  0  0  0  0  0  0  0  0  0  0  0
    9.1760   -5.4323   18.5306 C   0  0  0  0  0  0  0  0  0  0  0  0
    9.0354   -5.4132   17.1605 C   0  0  0  0  0  0  0  0  0  0  0  0
  1 10  1  0
  1 17  1  0
  1 29  1  0
  2  8  4  0
  2 23  4  0
  3 12  4  0
  3 28  4  0
  3 33  4  0
  4 13  4  0
  4 16  4  0
  4 18  4  0
  5  6  4  0
  5 15  4  0
  6 16  4  0
  6 17  1  0
  7 24  4  0
  7 27  4  0
  8 30  4  0
  9 20  1  0
  9 29  1  0
 10 16  1  0
 11 21  1  0
 11 29  1  0
 12 25  4  0
 12 31  4  0
 13 15  4  0
 13 27  4  0
 14 25  4  0
 14 34  4  0
 18 24  4  0
 19 26  4  0
 19 30  4  0
 19 32  1  0
 20 21  1  0
 20 34  1  0
 22 31  4  0
 22 32  4  0
 23 26  4  0
 28 32  4  0
 33 34  4  0
M  END
$$$$

 Created by Python create_sdf_string function

 34 56  0  0  0  0  0  0  0  0999 V2000
    5.8349   -8.6231   17.0072 N   0  0  0  0  0  0  0  0  0  0  0  0
    9.9219   -2.5274   25.5663 C   0  0  0  0  0  0  0  0  0  0  0  0
    9.9268   -4.5106   19.2484 C   0  0  0  0  0  0  0  0  0  0  0  0
    4.1419  -10.2871   17.8445 C   0  0  0  0  0  0  0  0  0  0  0  0
   -0.7541  -11.3165   16.0625 N   0  0  0  0  0  0  0  0  0  0  0  0
   10.2434   -3.8258   25.1310 C   0  0  0  0  0  0  0  0  0  0  0  0
    6.9964   -6.9969   16.8361 C   0  0  0  0  0  0  0  0  0  0  0  0
    4.5824   -9.0805   16.0068 C   0  0  0  0  0  0  0  0  0  0  0  0
   10.6155   -3.5224   18.6176 C   0  0  0  0  0  0  0  0  0  0  0  0
    1.5415  -10.8635   17.6314 C   0  0  0  0  0  0  0  0  0  0  0  0
    9.5940   -4.7083   16.1099 C   0  0  0  0  0  0  0  0  0  0  0  0
    2.2585  -11.4835   18.8190 N   0  0  0  0  0  0  0  0  0  0  0  0
    3.5986   -9.4641   17.0543 C   0  0  0  0  0  0  0  0  0  0  0  0
    5.7222   -9.5884   17.8128 C   0  0  0  0  0  0  0  0  0  0  0  0
    1.4456   -9.4714   15.4141 C   0  0  0  0  0  0  0  0  0  0  0  0
   10.2716   -3.1651   22.8055 C   0  0  0  0  0  0  0  0  0  0  0  0
    8.0221   -6.3204   16.4998 N   0  0  0  0  0  0  0  0  0  0  0  0
    8.8130   -6.7936   15.5643 C   0  0  0  0  0  0  0  0  0  0  0  0
   11.0641   -2.5210   20.5225 N   0  0  0  0  0  0  0  0  0  0  0  0
    9.6258   -1.8355   24.3098 C   0  0  0  0  0  0  0  0  0  0  0  0
    0.1076  -10.3764   15.3106 C   0  0  0  0  0  0  0  0  0  0  0  0
   10.5818   -3.5612   17.1331 C   0  0  0  0  0  0  0  0  0  0  0  0
   10.1142   -1.7108   23.1091 N   0  0  0  0  0  0  0  0  0  0  0  0
   10.0802   -4.3649   20.7424 C   0  0  0  0  0  0  0  0  0  0  0  0
    6.6791   -8.0972   16.2596 C   0  0  0  0  0  0  0  0  0  0  0  0
   10.5592   -3.9462   23.7118 C   0  0  0  0  0  0  0  0  0  0  0  0
   11.5203   -2.7305   19.1004 N   0  0  0  0  0  0  0  0  0  0  0  0
   10.4418   -3.3937   21.4636 C   0  0  0  0  0  0  0  0  0  0  0  0
    9.2358   -5.5770   18.3701 C   0  0  0  0  0  0  0  0  0  0  0  0
    8.8955   -5.4302   17.1586 C   0  0  0  0  0  0  0  0  0  0  0  0
    2.1206  -10.3227   16.7217 He  0  0  0  0  0  0  0  0  0  0  0  0
    3.3987  -11.0731   18.8801 He  0  0  0  0  0  0  0  0  0  0  0  0
    7.8689   -8.1958   15.6015 He  0  0  0  0  0  0  0  0  0  0  0  0
    0.2840  -11.2421   17.1825 He  0  0  0  0  0  0  0  0  0  0  0  0
  1  8  1  0
  1 14  1  0
  1 15  3  0
  1 21  3  0
  2  6  4  0
  2 19  1  0
  2 20  4  0
  2 30  3  0
  3  9  4  0
  3 17  4  0
  4 10  1  0
  4 13  4  0
  4 14  1  0
  4 15  1  0
  5 15  2  0
  5 19  3  0
  5 21  4  0
  6 24  2  0
  6 26  4  0
  7 17  1  0
  7 25  1  0
  8 13  1  0
  8 16  2  0
  8 29  2  0
  9 22  4  0
  9 27  4  0
  9 29  1  0
 10 12  4  0
 10 19  4  0
 10 24  1  0
 11 15  1  0
 11 17  2  0
 11 22  4  0
 11 30  4  0
 15 19  3  0
 15 21  4  0
 16 23  1  0
 16 26  4  0
 16 28  1  0
 17 18  1  0
 17 20  3  0
 17 24  1  0
 17 28  1  0
 17 30  2  0
 18 29  4  0
 18 30  4  0
 19 27  4  0
 19 28  4  0
 20 21  1  0
 20 23  4  0
 20 25  2  0
 22 30  3  0
 23 25  3  0
 24 28  4  0
 24 30  2  0
 29 30  4  0
M  END
$$$$

 Created by Python create_sdf_string function

 34 40  0  0  0  0  0  0  0  0999 V2000
    5.7280   -8.8626   16.7314 N   0  0  0  0  0  0  0  0  0  0  0  0
    9.8477   -2.5677   25.4332 C   0  0  0  0  0  0  0  0  0  0  0  0
    9.8960   -4.5643   19.2321 C   0  0  0  0  0  0  0  0  0  0  0  0
    2.1915  -10.1251   16.6775 C   0  0  0  0  0  0  0  0  0  0  0  0
    3.5527  -10.9870   18.8493 C   0  0  0  0  0  0  0  0  0  0  0  0
    4.1879  -10.1873   17.9643 C   0  0  0  0  0  0  0  0  0  0  0  0
   -0.4294  -11.0667   16.1653 N   0  0  0  0  0  0  0  0  0  0  0  0
   10.3228   -3.8097   25.0334 C   0  0  0  0  0  0  0  0  0  0  0  0
    6.9598   -6.8770   17.0783 C   0  0  0  0  0  0  0  0  0  0  0  0
    4.4294   -8.9089   16.0874 C   0  0  0  0  0  0  0  0  0  0  0  0
    7.8137   -8.3792   15.4408 C   0  0  0  0  0  0  0  0  0  0  0  0
   10.6128   -3.5935   18.5278 C   0  0  0  0  0  0  0  0  0  0  0  0
    1.5376  -10.9607   17.5781 C   0  0  0  0  0  0  0  0  0  0  0  0
    9.7681   -4.4957   16.4412 C   0  0  0  0  0  0  0  0  0  0  0  0
    2.2591  -11.3535   18.6917 N   0  0  0  0  0  0  0  0  0  0  0  0
    3.4925   -9.7518   16.8720 C   0  0  0  0  0  0  0  0  0  0  0  0
    5.6114   -9.6297   17.9287 C   0  0  0  0  0  0  0  0  0  0  0  0
    1.4679   -9.7160   15.5406 C   0  0  0  0  0  0  0  0  0  0  0  0
   10.3681   -3.0949   22.7559 C   0  0  0  0  0  0  0  0  0  0  0  0
    8.1429   -6.3016   16.5573 N   0  0  0  0  0  0  0  0  0  0  0  0
    8.6349   -7.0795   15.4548 C   0  0  0  0  0  0  0  0  0  0  0  0
   11.1938   -2.5628   20.5189 N   0  0  0  0  0  0  0  0  0  0  0  0
    9.6999   -1.5752   24.4674 C   0  0  0  0  0  0  0  0  0  0  0  0
    0.1856  -10.2131   15.2753 C   0  0  0  0  0  0  0  0  0  0  0  0
   10.5597   -3.6117   17.1209 C   0  0  0  0  0  0  0  0  0  0  0  0
    9.9866   -1.8080   23.1389 N   0  0  0  0  0  0  0  0  0  0  0  0
    0.2359  -11.4044   17.3127 C   0  0  0  0  0  0  0  0  0  0  0  0
    9.9684   -4.4731   20.6846 C   0  0  0  0  0  0  0  0  0  0  0  0
    6.6531   -8.1664   16.3115 C   0  0  0  0  0  0  0  0  0  0  0  0
   10.5495   -4.0728   23.7083 C   0  0  0  0  0  0  0  0  0  0  0  0
   11.2488   -2.6228   19.1903 N   0  0  0  0  0  0  0  0  0  0  0  0
   10.5377   -3.3891   21.3473 C   0  0  0  0  0  0  0  0  0  0  0  0
    9.1507   -5.4482   18.5248 C   0  0  0  0  0  0  0  0  0  0  0  0
    9.0098   -5.4388   17.1703 C   0  0  0  0  0  0  0  0  0  0  0  0
  1 10  1  0
  1 17  1  0
  1 29  1  0
  2  8  4  0
  2 23  4  0
  3 12  4  0
  3 28  4  0
  3 33  4  0
  4 13  4  0
  4 16  4  0
  4 18  4  0
  5  6  4  0
  5 15  4  0
  6 16  4  0
  6 17  1  0
  7 24  4  0
  7 27  4  0
  8 30  4  0
  9 20  1  0
  9 29  1  0
 10 16  1  0
 11 21  1  0
 11 29  1  0
 12 25  4  0
 12 31  4  0
 13 15  4  0
 13 27  4  0
 14 25  4  0
 14 34  4  0
 18 24  4  0
 19 26  4  0
 19 30  4  0
 19 32  1  0
 20 21  1  0
 20 34  1  0
 22 31  4  0
 22 32  4  0
 23 26  4  0
 28 32  4  0
 33 34  4  0
M  END
$$$$

 Created by Python create_sdf_string function

 34 74  0  0  0  0  0  0  0  0999 V2000
    5.5436   -8.6969   16.8763 N   0  0  0  0  0  0  0  0  0  0  0  0
    9.8934   -2.7522   25.3660 C   0  0  0  0  0  0  0  0  0  0  0  0
    9.9128   -4.5604   19.2332 C   0  0  0  0  0  0  0  0  0  0  0  0
    2.1944  -10.2841   16.6273 C   0  0  0  0  0  0  0  0  0  0  0  0
    3.5624  -10.8661   18.9587 C   0  0  0  0  0  0  0  0  0  0  0  0
    4.2592  -10.2219   17.8743 C   0  0  0  0  0  0  0  0  0  0  0  0
   -0.4330  -10.9465   16.3263 N   0  0  0  0  0  0  0  0  0  0  0  0
   10.3332   -3.8325   24.9380 C   0  0  0  0  0  0  0  0  0  0  0  0
    6.8912   -6.8297   17.1847 C   0  0  0  0  0  0  0  0  0  0  0  0
    4.4149   -8.9179   15.9392 C   0  0  0  0  0  0  0  0  0  0  0  0
    8.0900   -8.5830   15.7332 C   0  0  0  0  0  0  0  0  0  0  0  0
   10.2500   -3.5390   18.6163 C   0  0  0  0  0  0  0  0  0  0  0  0
    1.5836  -10.8592   17.5389 C   0  0  0  0  0  0  0  0  0  0  0  0
    9.5742   -4.6427   16.6161 C   0  0  0  0  0  0  0  0  0  0  0  0
    2.2629  -11.3015   18.6821 N   0  0  0  0  0  0  0  0  0  0  0  0
    3.5569   -9.6522   16.7758 C   0  0  0  0  0  0  0  0  0  0  0  0
    5.8992   -9.3499   17.9430 F   0  0  0  0  0  0  0  0  0  0  0  0
    1.4203   -9.7754   15.5159 C   0  0  0  0  0  0  0  0  0  0  0  0
   10.4317   -2.9775   22.6657 C   0  0  0  0  0  0  0  0  0  0  0  0
    8.1767   -6.3084   16.6351 N   0  0  0  0  0  0  0  0  0  0  0  0
    8.8951   -6.9015   15.4537 C   0  0  0  0  0  0  0  0  0  0  0  0
   11.0911   -2.4088   20.3826 N   0  0  0  0  0  0  0  0  0  0  0  0
    9.5332   -1.6269   24.4933 C   0  0  0  0  0  0  0  0  0  0  0  0
    0.0217   -9.9480   15.1093 C   0  0  0  0  0  0  0  0  0  0  0  0
   10.7798   -3.6685   16.9869 C   0  0  0  0  0  0  0  0  0  0  0  0
   10.0842   -1.8878   23.1956 N   0  0  0  0  0  0  0  0  0  0  0  0
    0.1777  -11.4076   17.3443 C   0  0  0  0  0  0  0  0  0  0  0  0
    9.9121   -4.4261   20.7464 C   0  0  0  0  0  0  0  0  0  0  0  0
    6.6713   -8.1714   16.4185 C   0  0  0  0  0  0  0  0  0  0  0  0
   10.5426   -3.9056   23.7750 C   0  0  0  0  0  0  0  0  0  0  0  0
   11.3938   -2.7069   19.0536 N   0  0  0  0  0  0  0  0  0  0  0  0
   10.7258   -3.3617   21.4141 C   0  0  0  0  0  0  0  0  0  0  0  0
    9.1045   -5.5445   18.2849 C   0  0  0  0  0  0  0  0  0  0  0  0
    9.0581   -5.3388   17.0618 C   0  0  0  0  0  0  0  0  0  0  0  0
  1  6  4  0
  1 10  1  0
  1 17  1  0
  1 26  2  0
  1 29  1  0
  2  8  4  0
  2 23  4  0
  2 24  2  0
  3 12  4  0
  3 13  3  0
  3 20  4  0
  3 33  4  0
  4  8  3  0
  4 13  4  0
  4 16  4  0
  4 18  2  0
  4 22  4  0
  4 30  4  0
  5  6  1  0
  5 11  4  0
  5 15  4  0
  6 14  4  0
  6 16  4  0
  6 17  1  0
  6 27  1  0
  7 13  1  0
  7 24  1  0
  7 27  4  0
  8  9  4  0
  8 30  4  0
  9 18  1  0
  9 20  1  0
  9 29  1  0
 10 16  1  0
 10 21  2  0
 11 15  1  0
 11 21  1  0
 11 29  1  0
 11 32  1  0
 12 20  1  0
 12 25  4  0
 12 31  4  0
 13 15  4  0
 13 27  4  0
 13 29  4  0
 14 25  4  0
 14 32  1  0
 14 34  4  0
 15 16  4  0
 16 30  2  0
 17 20  1  0
 17 23  4  0
 17 27  4  0
 17 29  1  0
 18 24  4  0
 18 31  4  0
 19 26  4  0
 19 30  4  0
 19 32  1  0
 20 21  1  0
 20 34  1  0
 21 29  2  0
 21 30  1  0
 22 31  4  0
 22 32  4  0
 23 26  4  0
 24 27  3  0
 25 28  4  0
 26 30  2  0
 26 34  3  0
 27 34  1  0
 28 32  4  0
 30 32  4  0
 33 34  4  0
M  END
$$$$

 Created by Python create_sdf_string function

 34 40  0  0  0  0  0  0  0  0999 V2000
    5.6965   -8.7499   16.7038 N   0  0  0  0  0  0  0  0  0  0  0  0
    9.8129   -2.6165   25.3847 C   0  0  0  0  0  0  0  0  0  0  0  0
    9.8799   -4.5334   19.2308 C   0  0  0  0  0  0  0  0  0  0  0  0
    2.2204  -10.1201   16.6451 C   0  0  0  0  0  0  0  0  0  0  0  0
    3.5686  -10.9425   18.8722 C   0  0  0  0  0  0  0  0  0  0  0  0
    4.2338  -10.1039   17.9532 C   0  0  0  0  0  0  0  0  0  0  0  0
   -0.4541  -10.9172   16.2650 N   0  0  0  0  0  0  0  0  0  0  0  0
   10.3443   -3.8251   24.9874 C   0  0  0  0  0  0  0  0  0  0  0  0
    6.9883   -6.8569   17.1149 C   0  0  0  0  0  0  0  0  0  0  0  0
    4.4383   -8.9216   16.0355 C   0  0  0  0  0  0  0  0  0  0  0  0
    7.9796   -8.5185   15.6925 C   0  0  0  0  0  0  0  0  0  0  0  0
   10.5902   -3.5758   18.5103 C   0  0  0  0  0  0  0  0  0  0  0  0
    1.5787  -10.9206   17.5821 C   0  0  0  0  0  0  0  0  0  0  0  0
    9.7927   -4.5324   16.4606 C   0  0  0  0  0  0  0  0  0  0  0  0
    2.2863  -11.3024   18.7039 N   0  0  0  0  0  0  0  0  0  0  0  0
    3.5340   -9.7460   16.8497 C   0  0  0  0  0  0  0  0  0  0  0  0
    5.6256   -9.4733   17.8826 C   0  0  0  0  0  0  0  0  0  0  0  0
    1.4829   -9.7195   15.5182 C   0  0  0  0  0  0  0  0  0  0  0  0
   10.3992   -3.0679   22.7117 C   0  0  0  0  0  0  0  0  0  0  0  0
    8.1453   -6.2648   16.5260 N   0  0  0  0  0  0  0  0  0  0  0  0
    8.6890   -7.1595   15.5021 C   0  0  0  0  0  0  0  0  0  0  0  0
   11.1988   -2.4952   20.4791 N   0  0  0  0  0  0  0  0  0  0  0  0
    9.6629   -1.6137   24.4412 C   0  0  0  0  0  0  0  0  0  0  0  0
    0.1427  -10.1106   15.3254 C   0  0  0  0  0  0  0  0  0  0  0  0
   10.5418   -3.6118   17.1220 C   0  0  0  0  0  0  0  0  0  0  0  0
   10.0069   -1.8152   23.1320 N   0  0  0  0  0  0  0  0  0  0  0  0
    0.2420  -11.3177   17.3475 C   0  0  0  0  0  0  0  0  0  0  0  0
    9.9650   -4.4383   20.6574 C   0  0  0  0  0  0  0  0  0  0  0  0
    6.6292   -8.0753   16.2321 C   0  0  0  0  0  0  0  0  0  0  0  0
   10.6301   -4.0612   23.6561 C   0  0  0  0  0  0  0  0  0  0  0  0
   11.2303   -2.5925   19.1334 N   0  0  0  0  0  0  0  0  0  0  0  0
   10.5373   -3.3318   21.2812 C   0  0  0  0  0  0  0  0  0  0  0  0
    9.1177   -5.4178   18.5176 C   0  0  0  0  0  0  0  0  0  0  0  0
    9.0216   -5.4469   17.1629 C   0  0  0  0  0  0  0  0  0  0  0  0
  1 10  1  0
  1 17  1  0
  1 29  1  0
  2  8  4  0
  2 23  4  0
  3 12  4  0
  3 28  4  0
  3 33  4  0
  4 13  4  0
  4 16  4  0
  4 18  4  0
  5  6  4  0
  5 15  4  0
  6 16  4  0
  6 17  1  0
  7 24  4  0
  7 27  4  0
  8 30  4  0
  9 20  1  0
  9 29  1  0
 10 16  1  0
 11 21  1  0
 11 29  1  0
 12 25  4  0
 12 31  4  0
 13 15  4  0
 13 27  4  0
 14 25  4  0
 14 34  4  0
 18 24  4  0
 19 26  4  0
 19 30  4  0
 19 32  1  0
 20 21  1  0
 20 34  1  0
 22 31  4  0
 22 32  4  0
 23 26  4  0
 28 32  4  0
 33 34  4  0
M  END
$$$$

 Created by Python create_sdf_string function

 34 56  0  0  0  0  0  0  0  0999 V2000
    5.7230   -8.5441   16.7259 C   0  0  0  0  0  0  0  0  0  0  0  0
    9.8259   -2.5555   25.5349 C   0  0  0  0  0  0  0  0  0  0  0  0
    9.9382   -4.4997   19.2070 C   0  0  0  0  0  0  0  0  0  0  0  0
    2.1412  -10.1196   16.5911 C   0  0  0  0  0  0  0  0  0  0  0  0
    3.4706  -10.9032   18.8511 C   0  0  0  0  0  0  0  0  0  0  0  0
   -0.1844  -10.8228   16.3159 N   0  0  0  0  0  0  0  0  0  0  0  0
    6.9748   -6.8796   17.0921 C   0  0  0  0  0  0  0  0  0  0  0  0
    4.4603   -9.0291   15.8351 C   0  0  0  0  0  0  0  0  0  0  0  0
    7.8157   -8.6079   15.5227 C   0  0  0  0  0  0  0  0  0  0  0  0
   10.7260   -3.6310   18.3773 C   0  0  0  0  0  0  0  0  0  0  0  0
    1.6043  -11.0785   17.4190 C   0  0  0  0  0  0  0  0  0  0  0  0
    9.7664   -4.4320   16.6039 C   0  0  0  0  0  0  0  0  0  0  0  0
    2.3150  -11.3125   18.7902 N   0  0  0  0  0  0  0  0  0  0  0  0
    3.5649   -9.5947   16.8864 C   0  0  0  0  0  0  0  0  0  0  0  0
    5.4934   -9.5242   17.9068 C   0  0  0  0  0  0  0  0  0  0  0  0
    1.3551   -9.8241   15.5650 C   0  0  0  0  0  0  0  0  0  0  0  0
   10.3212   -3.0788   22.8011 C   0  0  0  0  0  0  0  0  0  0  0  0
    8.2675   -6.2896   16.6016 N   0  0  0  0  0  0  0  0  0  0  0  0
    8.7636   -7.3193   15.2325 C   0  0  0  0  0  0  0  0  0  0  0  0
   11.2837   -2.3407   20.5079 N   0  0  0  0  0  0  0  0  0  0  0  0
    9.7726   -1.6600   24.3177 C   0  0  0  0  0  0  0  0  0  0  0  0
   -0.0019  -10.0647   15.3085 C   0  0  0  0  0  0  0  0  0  0  0  0
   10.3747   -3.6190   17.0580 C   0  0  0  0  0  0  0  0  0  0  0  0
    9.8995   -1.8869   23.1189 N   0  0  0  0  0  0  0  0  0  0  0  0
   10.0918   -4.3502   20.7392 C   0  0  0  0  0  0  0  0  0  0  0  0
    6.7569   -8.1724   16.0964 C   0  0  0  0  0  0  0  0  0  0  0  0
   10.6342   -4.1664   23.7345 C   0  0  0  0  0  0  0  0  0  0  0  0
   11.1167   -2.4308   19.2062 N   0  0  0  0  0  0  0  0  0  0  0  0
   10.4627   -3.4133   21.0645 C   0  0  0  0  0  0  0  0  0  0  0  0
    9.0994   -5.5095   18.5010 C   0  0  0  0  0  0  0  0  0  0  0  0
    8.9547   -5.5292   17.1936 C   0  0  0  0  0  0  0  0  0  0  0  0
    4.2774  -10.0990   18.0852 He  0  0  0  0  0  0  0  0  0  0  0  0
   10.4556   -3.8800   24.9162 He  0  0  0  0  0  0  0  0  0  0  0  0
    0.2115  -11.2519   17.2726 He  0  0  0  0  0  0  0  0  0  0  0  0
  1  8  1  0
  1 15  1  0
  1 26  1  0
  2  4  2  0
  2 21  4  0
  2 31  3  0
  3 10  4  0
  3 25  4  0
  3 30  4  0
  4 10  2  0
  4 11  4  0
  4 14  4  0
  4 16  4  0
  4 23  4  0
  4 24  4  0
  4 28  2  0
  5  8  4  0
  5 13  4  0
  5 16  2  0
  6 22  4  0
  7 15  2  0
  7 16  3  0
  7 18  1  0
  7 26  1  0
  8 14  1  0
  9 13  1  0
  9 16  3  0
  9 19  1  0
  9 26  1  0
  9 28  4  0
 10 23  4  0
 10 28  4  0
 11 13  4  0
 11 23  2  0
 12 14  1  0
 12 23  3  0
 12 30  1  0
 12 31  4  0
 15 25  3  0
 15 26  1  0
 16 22  4  0
 17 24  4  0
 17 27  4  0
 17 29  4  0
 18 19  1  0
 18 29  4  0
 18 31  1  0
 19 23  3  0
 20 28  4  0
 20 29  4  0
 20 31  1  0
 21 24  4  0
 25 29  4  0
 28 31  3  0
 29 30  3  0
 30 31  4  0
M  END
$$$$

 Created by Python create_sdf_string function

 34 40  0  0  0  0  0  0  0  0999 V2000
    5.6258   -8.7613   16.6929 C   0  0  0  0  0  0  0  0  0  0  0  0
    9.9221   -2.6132   25.3856 C   0  0  0  0  0  0  0  0  0  0  0  0
    9.8912   -4.5209   19.2199 C   0  0  0  0  0  0  0  0  0  0  0  0
    2.2109  -10.0912   16.6415 C   0  0  0  0  0  0  0  0  0  0  0  0
    3.5668  -10.8725   18.8211 C   0  0  0  0  0  0  0  0  0  0  0  0
    4.1890  -10.0696   17.9453 C   0  0  0  0  0  0  0  0  0  0  0  0
   -0.4118  -10.9002   16.2826 N   0  0  0  0  0  0  0  0  0  0  0  0
   10.4011   -3.8452   24.9855 C   0  0  0  0  0  0  0  0  0  0  0  0
    7.0557   -6.9010   17.0636 C   0  0  0  0  0  0  0  0  0  0  0  0
    4.3994   -8.9723   15.9821 C   0  0  0  0  0  0  0  0  0  0  0  0
    7.7971   -8.4906   15.4659 C   0  0  0  0  0  0  0  0  0  0  0  0
   10.5456   -3.5071   18.4977 C   0  0  0  0  0  0  0  0  0  0  0  0
    1.5759  -10.9151   17.5817 C   0  0  0  0  0  0  0  0  0  0  0  0
    9.7556   -4.5189   16.4776 C   0  0  0  0  0  0  0  0  0  0  0  0
    2.3089  -11.3086   18.6714 N   0  0  0  0  0  0  0  0  0  0  0  0
    3.5040   -9.7289   16.8121 C   0  0  0  0  0  0  0  0  0  0  0  0
    5.5147   -9.4785   17.9331 C   0  0  0  0  0  0  0  0  0  0  0  0
    1.4868   -9.6972   15.5275 C   0  0  0  0  0  0  0  0  0  0  0  0
   10.3759   -3.0939   22.6965 C   0  0  0  0  0  0  0  0  0  0  0  0
    8.2586   -6.3857   16.5382 N   0  0  0  0  0  0  0  0  0  0  0  0
    8.6726   -7.2457   15.4378 C   0  0  0  0  0  0  0  0  0  0  0  0
   11.1546   -2.4494   20.4667 N   0  0  0  0  0  0  0  0  0  0  0  0
    9.6845   -1.6198   24.4236 C   0  0  0  0  0  0  0  0  0  0  0  0
    0.1606  -10.0909   15.3554 C   0  0  0  0  0  0  0  0  0  0  0  0
   10.4882   -3.5620   17.1151 C   0  0  0  0  0  0  0  0  0  0  0  0
    9.9742   -1.8455   23.0941 N   0  0  0  0  0  0  0  0  0  0  0  0
    0.2605  -11.3221   17.3468 C   0  0  0  0  0  0  0  0  0  0  0  0
   10.0091   -4.4672   20.6240 C   0  0  0  0  0  0  0  0  0  0  0  0
    6.5794   -8.0506   16.1878 C   0  0  0  0  0  0  0  0  0  0  0  0
   10.6101   -4.0913   23.6470 C   0  0  0  0  0  0  0  0  0  0  0  0
   11.2055   -2.5374   19.1320 N   0  0  0  0  0  0  0  0  0  0  0  0
   10.5278   -3.3571   21.2643 C   0  0  0  0  0  0  0  0  0  0  0  0
    9.2040   -5.4594   18.5323 C   0  0  0  0  0  0  0  0  0  0  0  0
    9.0601   -5.4910   17.1721 C   0  0  0  0  0  0  0  0  0  0  0  0
  1 10  1  0
  1 17  1  0
  1 29  1  0
  2  8  4  0
  2 23  4  0
  3 12  4  0
  3 28  4  0
  3 33  4  0
  4 13  4  0
  4 16  4  0
  4 18  4  0
  5  6  4  0
  5 15  4  0
  6 16  4  0
  6 17  1  0
  7 24  4  0
  7 27  4  0
  8 30  4  0
  9 20  1  0
  9 29  1  0
 10 16  1  0
 11 21  1  0
 11 29  1  0
 12 25  4  0
 12 31  4  0
 13 15  4  0
 13 27  4  0
 14 25  4  0
 14 34  4  0
 18 24  4  0
 19 26  4  0
 19 30  4  0
 19 32  1  0
 20 21  1  0
 20 34  1  0
 22 31  4  0
 22 32  4  0
 23 26  4  0
 28 32  4  0
 33 34  4  0
M  END
$$$$

 Created by Python create_sdf_string function

 34 51  0  0  0  0  0  0  0  0999 V2000
    5.4806   -8.8912   16.8599 C   0  0  0  0  0  0  0  0  0  0  0  0
    9.8802   -2.5227   25.4644 C   0  0  0  0  0  0  0  0  0  0  0  0
    9.8486   -4.6632   19.2027 C   0  0  0  0  0  0  0  0  0  0  0  0
    2.1313  -10.0068   16.3447 C   0  0  0  0  0  0  0  0  0  0  0  0
    3.5244  -10.9548   18.8710 C   0  0  0  0  0  0  0  0  0  0  0  0
    4.2318  -10.1427   17.8705 C   0  0  0  0  0  0  0  0  0  0  0  0
   -0.5310  -10.7782   16.3303 N   0  0  0  0  0  0  0  0  0  0  0  0
   10.2329   -3.8482   25.1060 C   0  0  0  0  0  0  0  0  0  0  0  0
    7.0843   -6.9248   16.9418 C   0  0  0  0  0  0  0  0  0  0  0  0
    4.5153   -8.9070   15.9091 C   0  0  0  0  0  0  0  0  0  0  0  0
    7.6668   -8.3772   15.6939 C   0  0  0  0  0  0  0  0  0  0  0  0
   10.6335   -3.6307   18.6264 C   0  0  0  0  0  0  0  0  0  0  0  0
    1.3499  -10.9104   17.6537 C   0  0  0  0  0  0  0  0  0  0  0  0
    9.8326   -4.4122   16.6240 C   0  0  0  0  0  0  0  0  0  0  0  0
    1.9484  -11.2297   18.5790 N   0  0  0  0  0  0  0  0  0  0  0  0
    3.6068   -9.7351   16.6879 P   0  0  0  0  0  0  0  0  0  0  0  0
    5.9584   -9.3725   17.8658 C   0  0  0  0  0  0  0  0  0  0  0  0
    1.5637   -9.7916   15.4061 C   0  0  0  0  0  0  0  0  0  0  0  0
    8.2337   -6.2509   16.5469 N   0  0  0  0  0  0  0  0  0  0  0  0
    8.7039   -7.1846   15.2419 C   0  0  0  0  0  0  0  0  0  0  0  0
   11.2451   -2.4355   20.5108 N   0  0  0  0  0  0  0  0  0  0  0  0
    9.7071   -1.6567   24.4230 C   0  0  0  0  0  0  0  0  0  0  0  0
    0.0412  -10.0452   15.6830 C   0  0  0  0  0  0  0  0  0  0  0  0
   10.5127   -3.4465   17.2244 C   0  0  0  0  0  0  0  0  0  0  0  0
    9.9833   -1.9417   23.1038 N   0  0  0  0  0  0  0  0  0  0  0  0
    0.0732  -11.3783   17.2844 C   0  0  0  0  0  0  0  0  0  0  0  0
    9.8053   -4.5409   20.4978 C   0  0  0  0  0  0  0  0  0  0  0  0
    6.5670   -8.1724   16.3869 C   0  0  0  0  0  0  0  0  0  0  0  0
   10.5794   -4.1893   23.6712 C   0  0  0  0  0  0  0  0  0  0  0  0
   11.1072   -2.6740   19.1186 N   0  0  0  0  0  0  0  0  0  0  0  0
   10.5192   -3.2409   21.2524 C   0  0  0  0  0  0  0  0  0  0  0  0
    8.9843   -5.7809   18.6510 C   0  0  0  0  0  0  0  0  0  0  0  0
    8.9606   -5.4324   16.9469 C   0  0  0  0  0  0  0  0  0  0  0  0
   10.1134   -3.0273   22.5703 He  0  0  0  0  0  0  0  0  0  0  0  0
  1 10  1  0
  1 17  1  0
  1 25  2  0
  2  8  4  0
  2 22  4  0
  3  9  2  0
  3 12  4  0
  3 27  2  0
  3 32  4  0
  4 13  4  0
  4 16  2  0
  4 18  2  0
  4 32  3  0
  5  6  4  0
  5 15  4  0
  6 16  4  0
  6 17  1  0
  6 21  1  0
  6 31  2  0
  7 26  4  0
  8 14  2  0
  8 29  4  0
  9 19  1  0
  9 28  1  0
 10 15  2  0
 10 16  1  0
 11 20  1  0
 11 28  1  0
 12 24  4  0
 12 30  4  0
 13 15  4  0
 13 26  4  0
 14 24  4  0
 14 29  1  0
 14 32  2  0
 14 33  4  0
 15 31  3  0
 16 19  3  0
 16 25  1  0
 16 28  2  0
 18 23  4  0
 18 29  4  0
 19 20  1  0
 19 33  1  0
 21 30  4  0
 21 31  4  0
 22 25  4  0
 23 30  4  0
 24 32  4  0
 27 31  4  0
 27 33  4  0
M  END
$$$$

 Created by Python create_sdf_string function

 34 40  0  0  0  0  0  0  0  0999 V2000
    5.6618   -8.7898   16.7050 N   0  0  0  0  0  0  0  0  0  0  0  0
    9.8754   -2.5622   25.3928 C   0  0  0  0  0  0  0  0  0  0  0  0
    9.8221   -4.5687   19.2245 C   0  0  0  0  0  0  0  0  0  0  0  0
    2.1795  -10.1106   16.6218 C   0  0  0  0  0  0  0  0  0  0  0  0
    3.5075  -10.9170   18.8246 C   0  0  0  0  0  0  0  0  0  0  0  0
    4.1703  -10.1283   17.9085 C   0  0  0  0  0  0  0  0  0  0  0  0
   -0.5461  -10.8097   16.3150 N   0  0  0  0  0  0  0  0  0  0  0  0
   10.2913   -3.8320   24.9911 C   0  0  0  0  0  0  0  0  0  0  0  0
    7.0196   -6.8533   17.0762 C   0  0  0  0  0  0  0  0  0  0  0  0
    4.4303   -8.9856   16.0072 C   0  0  0  0  0  0  0  0  0  0  0  0
    7.7659   -8.4268   15.4913 C   0  0  0  0  0  0  0  0  0  0  0  0
   10.5322   -3.5647   18.5539 C   0  0  0  0  0  0  0  0  0  0  0  0
    1.5067  -10.9059   17.5829 C   0  0  0  0  0  0  0  0  0  0  0  0
    9.7716   -4.4921   16.4746 C   0  0  0  0  0  0  0  0  0  0  0  0
    2.2182  -11.2809   18.6949 N   0  0  0  0  0  0  0  0  0  0  0  0
    3.5023   -9.7661   16.8203 C   0  0  0  0  0  0  0  0  0  0  0  0
    5.5805   -9.5357   17.8915 C   0  0  0  0  0  0  0  0  0  0  0  0
    1.4438   -9.6849   15.5222 C   0  0  0  0  0  0  0  0  0  0  0  0
   10.3086   -3.0987   22.6943 C   0  0  0  0  0  0  0  0  0  0  0  0
    8.1984   -6.3027   16.4531 N   0  0  0  0  0  0  0  0  0  0  0  0
    8.6148   -7.1850   15.3999 C   0  0  0  0  0  0  0  0  0  0  0  0
   11.1438   -2.5146   20.5228 N   0  0  0  0  0  0  0  0  0  0  0  0
    9.6976   -1.5768   24.4265 C   0  0  0  0  0  0  0  0  0  0  0  0
    0.0979  -10.0521   15.3846 C   0  0  0  0  0  0  0  0  0  0  0  0
   10.5109   -3.5789   17.1670 C   0  0  0  0  0  0  0  0  0  0  0  0
    9.9527   -1.8266   23.0954 N   0  0  0  0  0  0  0  0  0  0  0  0
    0.1569  -11.2536   17.3965 C   0  0  0  0  0  0  0  0  0  0  0  0
    9.8885   -4.4970   20.6467 C   0  0  0  0  0  0  0  0  0  0  0  0
    6.5290   -7.9906   16.2429 C   0  0  0  0  0  0  0  0  0  0  0  0
   10.4800   -4.1026   23.6407 C   0  0  0  0  0  0  0  0  0  0  0  0
   11.2183   -2.6119   19.1792 N   0  0  0  0  0  0  0  0  0  0  0  0
   10.4565   -3.3839   21.2813 C   0  0  0  0  0  0  0  0  0  0  0  0
    9.1359   -5.5180   18.5047 C   0  0  0  0  0  0  0  0  0  0  0  0
    9.0456   -5.4702   17.1178 C   0  0  0  0  0  0  0  0  0  0  0  0
  1 10  1  0
  1 17  1  0
  1 29  1  0
  2  8  4  0
  2 23  4  0
  3 12  4  0
  3 28  4  0
  3 33  4  0
  4 13  4  0
  4 16  4  0
  4 18  4  0
  5  6  4  0
  5 15  4  0
  6 16  4  0
  6 17  1  0
  7 24  4  0
  7 27  4  0
  8 30  4  0
  9 20  1  0
  9 29  1  0
 10 16  1  0
 11 21  1  0
 11 29  1  0
 12 25  4  0
 12 31  4  0
 13 15  4  0
 13 27  4  0
 14 25  4  0
 14 34  4  0
 18 24  4  0
 19 26  4  0
 19 30  4  0
 19 32  1  0
 20 21  1  0
 20 34  1  0
 22 31  4  0
 22 32  4  0
 23 26  4  0
 28 32  4  0
 33 34  4  0
M  END
$$$$

 Created by Python create_sdf_string function

 34 61  0  0  0  0  0  0  0  0999 V2000
    5.7828   -8.6837   16.9216 N   0  0  0  0  0  0  0  0  0  0  0  0
    9.9477   -2.5764   25.4902 C   0  0  0  0  0  0  0  0  0  0  0  0
    9.7488   -4.6462   19.2291 C   0  0  0  0  0  0  0  0  0  0  0  0
    2.3335  -10.0686   16.8277 C   0  0  0  0  0  0  0  0  0  0  0  0
    3.3992  -11.0385   18.7801 C   0  0  0  0  0  0  0  0  0  0  0  0
    4.2036  -10.1183   17.7785 C   0  0  0  0  0  0  0  0  0  0  0  0
   -0.1832  -10.6652   16.1832 N   0  0  0  0  0  0  0  0  0  0  0  0
   10.3373   -3.8212   25.1370 C   0  0  0  0  0  0  0  0  0  0  0  0
    7.1224   -7.0019   17.3366 C   0  0  0  0  0  0  0  0  0  0  0  0
    4.2826   -8.9170   15.7128 C   0  0  0  0  0  0  0  0  0  0  0  0
    7.5700   -8.7435   15.4351 C   0  0  0  0  0  0  0  0  0  0  0  0
   10.4899   -3.5524   18.5169 C   0  0  0  0  0  0  0  0  0  0  0  0
    1.7785  -11.0004   17.6532 C   0  0  0  0  0  0  0  0  0  0  0  0
    9.6946   -4.4298   16.4428 P   0  0  0  0  0  0  0  0  0  0  0  0
    2.0763  -11.1522   18.6759 N   0  0  0  0  0  0  0  0  0  0  0  0
    3.4632   -9.8459   16.9069 C   0  0  0  0  0  0  0  0  0  0  0  0
    5.3978   -9.5465   17.8127 C   0  0  0  0  0  0  0  0  0  0  0  0
    1.4653   -9.7294   15.3787 C   0  0  0  0  0  0  0  0  0  0  0  0
   10.3586   -3.0665   22.7104 F   0  0  0  0  0  0  0  0  0  0  0  0
    8.2130   -6.3522   16.2304 N   0  0  0  0  0  0  0  0  0  0  0  0
    8.5747   -7.2450   15.3503 C   0  0  0  0  0  0  0  0  0  0  0  0
   11.1165   -2.2927   20.6866 N   0  0  0  0  0  0  0  0  0  0  0  0
    9.8842   -1.5401   24.4567 C   0  0  0  0  0  0  0  0  0  0  0  0
   -0.0409   -9.9998   15.2009 C   0  0  0  0  0  0  0  0  0  0  0  0
   10.6640   -3.4088   17.1882 C   0  0  0  0  0  0  0  0  0  0  0  0
    9.9584   -1.8137   22.8766 N   0  0  0  0  0  0  0  0  0  0  0  0
    0.1148  -11.3852   17.4062 C   0  0  0  0  0  0  0  0  0  0  0  0
    9.9745   -4.7336   20.6172 C   0  0  0  0  0  0  0  0  0  0  0  0
    6.6954   -7.9618   16.3463 C   0  0  0  0  0  0  0  0  0  0  0  0
   10.4599   -4.1042   23.6768 C   0  0  0  0  0  0  0  0  0  0  0  0
   11.0743   -2.6499   19.0680 N   0  0  0  0  0  0  0  0  0  0  0  0
   10.3045   -3.4900   21.2464 C   0  0  0  0  0  0  0  0  0  0  0  0
    9.1966   -5.4464   18.4897 C   0  0  0  0  0  0  0  0  0  0  0  0
    9.1626   -5.2516   17.0843 C   0  0  0  0  0  0  0  0  0  0  0  0
  1  6  2  0
  1 10  2  0
  1 17  1  0
  1 19  1  0
  1 28  3  0
  2  8  4  0
  2 23  4  0
  2 26  4  0
  3 12  4  0
  3 14  1  0
  3 25  3  0
  3 28  4  0
  3 33  4  0
  4 10  1  0
  4 13  4  0
  4 16  1  0
  4 18  4  0
  4 24  1  0
  4 25  4  0
  5  6  4  0
  5 15  4  0
  6 10  4  0
  6 16  4  0
  6 17  1  0
  6 24  1  0
  7 27  4  0
  7 29  1  0
  8 30  4  0
  9 12  1  0
  9 20  1  0
  9 29  1  0
 10 12  1  0
 10 16  1  0
 11 19  2  0
 11 21  1  0
 11 27  1  0
 11 29  1  0
 12 13  4  0
 12 25  4  0
 12 30  3  0
 12 33  2  0
 13 27  4  0
 14 34  4  0
 15 17  1  0
 15 21  1  0
 16 27  2  0
 17 22  4  0
 18 24  4  0
 19 26  4  0
 19 30  4  0
 19 32  1  0
 20 21  2  0
 20 34  1  0
 22 31  4  0
 22 32  4  0
 23 25  4  0
 23 26  4  0
 23 31  4  0
 28 32  4  0
 29 34  2  0
 33 34  4  0
M  END
$$$$

 Created by Python create_sdf_string function

 34 40  0  0  0  0  0  0  0  0999 V2000
    5.5826   -8.7811   16.7438 N   0  0  0  0  0  0  0  0  0  0  0  0
    9.9797   -2.5220   25.4078 C   0  0  0  0  0  0  0  0  0  0  0  0
    9.8529   -4.5801   19.1806 C   0  0  0  0  0  0  0  0  0  0  0  0
    2.1727  -10.1019   16.6187 C   0  0  0  0  0  0  0  0  0  0  0  0
    3.4991  -10.9326   18.8124 C   0  0  0  0  0  0  0  0  0  0  0  0
    4.1265  -10.1384   17.9145 C   0  0  0  0  0  0  0  0  0  0  0  0
   -0.4457  -10.8387   16.2358 N   0  0  0  0  0  0  0  0  0  0  0  0
   10.3279   -3.8101   25.0099 C   0  0  0  0  0  0  0  0  0  0  0  0
    7.1123   -6.9658   17.2035 C   0  0  0  0  0  0  0  0  0  0  0  0
    4.4014   -8.9488   16.0047 C   0  0  0  0  0  0  0  0  0  0  0  0
    7.6139   -8.4425   15.4372 C   0  0  0  0  0  0  0  0  0  0  0  0
   10.5201   -3.5437   18.5095 C   0  0  0  0  0  0  0  0  0  0  0  0
    1.5346  -10.8871   17.5815 C   0  0  0  0  0  0  0  0  0  0  0  0
    9.7909   -4.4754   16.4166 C   0  0  0  0  0  0  0  0  0  0  0  0
    2.2343  -11.3051   18.6892 N   0  0  0  0  0  0  0  0  0  0  0  0
    3.4717   -9.7495   16.7897 C   0  0  0  0  0  0  0  0  0  0  0  0
    5.5005   -9.5575   17.9067 C   0  0  0  0  0  0  0  0  0  0  0  0
    1.4760   -9.6802   15.4804 C   0  0  0  0  0  0  0  0  0  0  0  0
   10.3174   -3.1280   22.7159 C   0  0  0  0  0  0  0  0  0  0  0  0
    8.2560   -6.3965   16.4451 N   0  0  0  0  0  0  0  0  0  0  0  0
    8.5569   -7.2175   15.3955 C   0  0  0  0  0  0  0  0  0  0  0  0
   11.0575   -2.5110   20.5192 N   0  0  0  0  0  0  0  0  0  0  0  0
    9.8111   -1.5368   24.4387 C   0  0  0  0  0  0  0  0  0  0  0  0
    0.1363  -10.0651   15.3088 C   0  0  0  0  0  0  0  0  0  0  0  0
   10.4904   -3.5269   17.1185 C   0  0  0  0  0  0  0  0  0  0  0  0
   10.0399   -1.8135   23.0917 N   0  0  0  0  0  0  0  0  0  0  0  0
    0.2187  -11.2327   17.3645 C   0  0  0  0  0  0  0  0  0  0  0  0
    9.9370   -4.5440   20.6220 C   0  0  0  0  0  0  0  0  0  0  0  0
    6.5271   -8.0142   16.4261 C   0  0  0  0  0  0  0  0  0  0  0  0
   10.4794   -4.1187   23.6700 C   0  0  0  0  0  0  0  0  0  0  0  0
   11.1214   -2.5705   19.1697 N   0  0  0  0  0  0  0  0  0  0  0  0
   10.4492   -3.4251   21.2891 C   0  0  0  0  0  0  0  0  0  0  0  0
    9.1596   -5.4812   18.4562 C   0  0  0  0  0  0  0  0  0  0  0  0
    9.0762   -5.4637   17.0905 C   0  0  0  0  0  0  0  0  0  0  0  0
  1 10  1  0
  1 17  1  0
  1 29  1  0
  2  8  4  0
  2 23  4  0
  3 12  4  0
  3 28  4  0
  3 33  4  0
  4 13  4  0
  4 16  4  0
  4 18  4  0
  5  6  4  0
  5 15  4  0
  6 16  4  0
  6 17  1  0
  7 24  4  0
  7 27  4  0
  8 30  4  0
  9 20  1  0
  9 29  1  0
 10 16  1  0
 11 21  1  0
 11 29  1  0
 12 25  4  0
 12 31  4  0
 13 15  4  0
 13 27  4  0
 14 25  4  0
 14 34  4  0
 18 24  4  0
 19 26  4  0
 19 30  4  0
 19 32  1  0
 20 21  1  0
 20 34  1  0
 22 31  4  0
 22 32  4  0
 23 26  4  0
 28 32  4  0
 33 34  4  0
M  END
$$$$

 Created by Python create_sdf_string function

 34 60  0  0  0  0  0  0  0  0999 V2000
    5.3665   -8.8667   16.5633 N   0  0  0  0  0  0  0  0  0  0  0  0
   10.1734   -2.4327   25.2610 C   0  0  0  0  0  0  0  0  0  0  0  0
    9.9515   -4.5359   19.0799 C   0  0  0  0  0  0  0  0  0  0  0  0
    2.3329  -10.1374   16.6842 C   0  0  0  0  0  0  0  0  0  0  0  0
    3.6419  -10.9858   18.7152 C   0  0  0  0  0  0  0  0  0  0  0  0
    4.1510  -10.0676   17.8588 C   0  0  0  0  0  0  0  0  0  0  0  0
   -0.4533  -10.8160   15.9143 N   0  0  0  0  0  0  0  0  0  0  0  0
   10.1865   -3.8522   25.0450 C   0  0  0  0  0  0  0  0  0  0  0  0
    7.0172   -6.9505   17.0793 C   0  0  0  0  0  0  0  0  0  0  0  0
    4.2417   -9.0989   15.8674 C   0  0  0  0  0  0  0  0  0  0  0  0
    7.5484   -8.5137   15.4249 C   0  0  0  0  0  0  0  0  0  0  0  0
   10.3558   -3.4258   18.4381 P   0  0  0  0  0  0  0  0  0  0  0  0
    1.6242  -10.8985   17.4282 C   0  0  0  0  0  0  0  0  0  0  0  0
    9.8232   -4.5867   16.3220 C   0  0  0  0  0  0  0  0  0  0  0  0
    2.1622  -11.1824   18.7084 N   0  0  0  0  0  0  0  0  0  0  0  0
    3.4780   -9.7473   16.8711 C   0  0  0  0  0  0  0  0  0  0  0  0
    5.3414   -9.5938   18.1145 C   0  0  0  0  0  0  0  0  0  0  0  0
    1.4493   -9.8703   15.5566 C   0  0  0  0  0  0  0  0  0  0  0  0
   10.3591   -2.9411   23.0531 C   0  0  0  0  0  0  0  0  0  0  0  0
    8.2078   -6.2857   16.5936 N   0  0  0  0  0  0  0  0  0  0  0  0
    8.4067   -7.1502   15.2398 C   0  0  0  0  0  0  0  0  0  0  0  0
    0.0650  -10.0601   15.4198 C   0  0  0  0  0  0  0  0  0  0  0  0
   10.4577   -3.4861   17.0899 C   0  0  0  0  0  0  0  0  0  0  0  0
   10.1891   -2.0050   23.0641 N   0  0  0  0  0  0  0  0  0  0  0  0
    0.1566  -11.3873   17.2911 C   0  0  0  0  0  0  0  0  0  0  0  0
    9.8862   -4.5776   20.5540 C   0  0  0  0  0  0  0  0  0  0  0  0
    6.7625   -7.9582   16.3472 C   0  0  0  0  0  0  0  0  0  0  0  0
   10.3534   -4.0158   23.6325 C   0  0  0  0  0  0  0  0  0  0  0  0
   11.2237   -2.6823   19.2611 N   0  0  0  0  0  0  0  0  0  0  0  0
   10.3164   -3.6369   21.2947 C   0  0  0  0  0  0  0  0  0  0  0  0
    9.2313   -5.6839   18.4596 C   0  0  0  0  0  0  0  0  0  0  0  0
    8.9743   -5.3502   17.0800 C   0  0  0  0  0  0  0  0  0  0  0  0
   10.9479   -2.5457   20.5268 He  0  0  0  0  0  0  0  0  0  0  0  0
    9.9553   -1.6688   24.3979 He  0  0  0  0  0  0  0  0  0  0  0  0
  1  4  1  0
  1 10  1  0
  1 17  1  0
  1 27  1  0
  2  8  4  0
  3 12  4  0
  3 26  4  0
  3 31  4  0
  4  6  3  0
  4 13  2  0
  4 16  4  0
  4 18  4  0
  4 24  4  0
  5  6  4  0
  5 12  3  0
  5 15  4  0
  6 16  4  0
  6 17  1  0
  7 13  1  0
  7 14  4  0
  7 20  3  0
  7 22  4  0
  7 25  4  0
  8 28  4  0
  9 10  1  0
  9 12  2  0
  9 14  3  0
  9 20  1  0
  9 24  2  0
  9 25  2  0
 10 16  1  0
 10 20  2  0
 10 25  3  0
 11 19  4  0
 11 21  1  0
 11 28  1  0
 11 29  3  0
 11 31  3  0
 12 14  2  0
 12 19  3  0
 12 22  4  0
 12 23  4  0
 12 29  4  0
 13 15  4  0
 13 25  4  0
 13 31  4  0
 14 18  4  0
 14 23  4  0
 14 24  2  0
 14 32  4  0
 16 31  2  0
 18 22  4  0
 18 31  1  0
 19 24  4  0
 19 28  3  0
 19 30  1  0
 20 21  1  0
 20 32  1  0
 21 30  1  0
 26 30  4  0
M  END
$$$$

 Created by Python create_sdf_string function

 34 40  0  0  0  0  0  0  0  0999 V2000
    5.5604   -8.8389   16.7095 N   0  0  0  0  0  0  0  0  0  0  0  0
   10.0526   -2.4888   25.3836 C   0  0  0  0  0  0  0  0  0  0  0  0
    9.8356   -4.6202   19.1603 C   0  0  0  0  0  0  0  0  0  0  0  0
    2.1609  -10.1152   16.6006 C   0  0  0  0  0  0  0  0  0  0  0  0
    3.4723  -10.9186   18.8069 C   0  0  0  0  0  0  0  0  0  0  0  0
    4.1030  -10.1274   17.9211 C   0  0  0  0  0  0  0  0  0  0  0  0
   -0.4620  -10.9214   16.2013 N   0  0  0  0  0  0  0  0  0  0  0  0
   10.2782   -3.7977   25.0169 C   0  0  0  0  0  0  0  0  0  0  0  0
    7.0138   -6.9717   17.1639 C   0  0  0  0  0  0  0  0  0  0  0  0
    4.3608   -9.0237   15.9673 C   0  0  0  0  0  0  0  0  0  0  0  0
    7.5725   -8.3940   15.3532 C   0  0  0  0  0  0  0  0  0  0  0  0
   10.4935   -3.5818   18.4732 C   0  0  0  0  0  0  0  0  0  0  0  0
    1.5239  -10.9319   17.5358 C   0  0  0  0  0  0  0  0  0  0  0  0
    9.7275   -4.5155   16.4073 C   0  0  0  0  0  0  0  0  0  0  0  0
    2.2146  -11.3347   18.6420 N   0  0  0  0  0  0  0  0  0  0  0  0
    3.4462   -9.7840   16.7952 C   0  0  0  0  0  0  0  0  0  0  0  0
    5.4370   -9.4988   17.9549 C   0  0  0  0  0  0  0  0  0  0  0  0
    1.4286   -9.6966   15.4677 C   0  0  0  0  0  0  0  0  0  0  0  0
   10.3196   -3.1527   22.7124 C   0  0  0  0  0  0  0  0  0  0  0  0
    8.1583   -6.3579   16.4784 N   0  0  0  0  0  0  0  0  0  0  0  0
    8.4602   -7.1556   15.3186 C   0  0  0  0  0  0  0  0  0  0  0  0
   11.0705   -2.5511   20.4701 N   0  0  0  0  0  0  0  0  0  0  0  0
   10.0060   -1.5419   24.4108 C   0  0  0  0  0  0  0  0  0  0  0  0
    0.1252  -10.1270   15.2897 C   0  0  0  0  0  0  0  0  0  0  0  0
   10.4507   -3.5774   17.0765 C   0  0  0  0  0  0  0  0  0  0  0  0
   10.1624   -1.8360   23.0844 N   0  0  0  0  0  0  0  0  0  0  0  0
    0.2065  -11.3255   17.2996 C   0  0  0  0  0  0  0  0  0  0  0  0
    9.9191   -4.5462   20.5832 C   0  0  0  0  0  0  0  0  0  0  0  0
    6.4722   -8.0831   16.3755 C   0  0  0  0  0  0  0  0  0  0  0  0
   10.4096   -4.1380   23.6735 C   0  0  0  0  0  0  0  0  0  0  0  0
   11.0753   -2.6015   19.1350 N   0  0  0  0  0  0  0  0  0  0  0  0
   10.4329   -3.4598   21.2740 C   0  0  0  0  0  0  0  0  0  0  0  0
    9.1552   -5.5303   18.4538 C   0  0  0  0  0  0  0  0  0  0  0  0
    9.0255   -5.5221   17.0893 C   0  0  0  0  0  0  0  0  0  0  0  0
  1 10  1  0
  1 17  1  0
  1 29  1  0
  2  8  4  0
  2 23  4  0
  3 12  4  0
  3 28  4  0
  3 33  4  0
  4 13  4  0
  4 16  4  0
  4 18  4  0
  5  6  4  0
  5 15  4  0
  6 16  4  0
  6 17  1  0
  7 24  4  0
  7 27  4  0
  8 30  4  0
  9 20  1  0
  9 29  1  0
 10 16  1  0
 11 21  1  0
 11 29  1  0
 12 25  4  0
 12 31  4  0
 13 15  4  0
 13 27  4  0
 14 25  4  0
 14 34  4  0
 18 24  4  0
 19 26  4  0
 19 30  4  0
 19 32  1  0
 20 21  1  0
 20 34  1  0
 22 31  4  0
 22 32  4  0
 23 26  4  0
 28 32  4  0
 33 34  4  0
M  END
$$$$

 Created by Python create_sdf_string function

 34 56  0  0  0  0  0  0  0  0999 V2000
   10.1523   -2.5097   25.5754 C   0  0  0  0  0  0  0  0  0  0  0  0
    9.8115   -4.6103   19.2453 C   0  0  0  0  0  0  0  0  0  0  0  0
    2.2093  -10.1551   16.6078 C   0  0  0  0  0  0  0  0  0  0  0  0
    3.4698  -10.9376   18.7050 C   0  0  0  0  0  0  0  0  0  0  0  0
    4.2974  -10.0705   17.9545 C   0  0  0  0  0  0  0  0  0  0  0  0
   -0.4105  -11.1152   16.1314 F   0  0  0  0  0  0  0  0  0  0  0  0
   10.3507   -3.8732   25.1497 C   0  0  0  0  0  0  0  0  0  0  0  0
    7.0436   -6.9919   17.2132 C   0  0  0  0  0  0  0  0  0  0  0  0
    4.5190   -9.0150   15.9888 C   0  0  0  0  0  0  0  0  0  0  0  0
    7.4665   -8.3421   15.6316 C   0  0  0  0  0  0  0  0  0  0  0  0
   10.4209   -3.5408   18.6538 C   0  0  0  0  0  0  0  0  0  0  0  0
    1.2592  -11.0849   17.6336 C   0  0  0  0  0  0  0  0  0  0  0  0
    2.1944  -11.3778   18.5904 N   0  0  0  0  0  0  0  0  0  0  0  0
    3.2844   -9.8081   16.5586 C   0  0  0  0  0  0  0  0  0  0  0  0
    5.3188   -9.5315   18.0795 O   0  0  0  0  0  0  0  0  0  0  0  0
    1.4859   -9.7335   15.4811 C   0  0  0  0  0  0  0  0  0  0  0  0
   10.2974   -3.1586   22.5656 C   0  0  0  0  0  0  0  0  0  0  0  0
    8.0980   -6.4666   16.3408 N   0  0  0  0  0  0  0  0  0  0  0  0
    8.5587   -7.1396   15.2090 C   0  0  0  0  0  0  0  0  0  0  0  0
   10.9798   -2.4881   20.4416 N   0  0  0  0  0  0  0  0  0  0  0  0
   10.1446   -1.5758   24.4492 C   0  0  0  0  0  0  0  0  0  0  0  0
    0.1482  -10.0519   15.4907 C   0  0  0  0  0  0  0  0  0  0  0  0
   10.5740   -3.6384   17.0099 C   0  0  0  0  0  0  0  0  0  0  0  0
   10.1357   -1.7463   23.1630 N   0  0  0  0  0  0  0  0  0  0  0  0
    0.1408  -11.4034   17.1766 C   0  0  0  0  0  0  0  0  0  0  0  0
    9.9941   -4.6859   20.4971 C   0  0  0  0  0  0  0  0  0  0  0  0
    6.5636   -7.9683   16.4300 C   0  0  0  0  0  0  0  0  0  0  0  0
   10.4071   -4.3075   23.6749 C   0  0  0  0  0  0  0  0  0  0  0  0
   11.1847   -2.7279   19.1615 N   0  0  0  0  0  0  0  0  0  0  0  0
   10.3488   -3.4641   21.3669 C   0  0  0  0  0  0  0  0  0  0  0  0
    9.1367   -5.7251   18.3485 C   0  0  0  0  0  0  0  0  0  0  0  0
    8.9598   -5.2669   17.3301 C   0  0  0  0  0  0  0  0  0  0  0  0
    5.5525   -8.6968   16.6579 He  0  0  0  0  0  0  0  0  0  0  0  0
    9.9868   -4.3451   16.4314 He  0  0  0  0  0  0  0  0  0  0  0  0
  1  7  4  0
  1 21  4  0
  2  7  1  0
  2 11  4  0
  2 26  4  0
  2 31  4  0
  3 12  4  0
  3 13  2  0
  3 14  4  0
  3 16  4  0
  3 28  1  0
  4  5  4  0
  4 13  4  0
  5 13  1  0
  5 14  4  0
  5 15  1  0
  5 19  1  0
  5 27  2  0
  6 13  4  0
  6 15  3  0
  6 22  4  0
  6 25  4  0
  7 28  4  0
  8 18  1  0
  8 27  1  0
  9 14  1  0
  9 22  3  0
 10 15  2  0
 10 19  1  0
 10 27  1  0
 10 32  3  0
 11 14  4  0
 11 16  3  0
 11 23  4  0
 11 29  4  0
 12 13  4  0
 12 25  4  0
 13 16  1  0
 13 32  1  0
 16 22  4  0
 17 24  4  0
 17 28  4  0
 17 30  1  0
 18 19  1  0
 18 20  3  0
 18 21  2  0
 18 29  4  0
 18 32  1  0
 19 20  1  0
 20 29  4  0
 20 30  4  0
 21 24  4  0
 25 28  2  0
 26 30  4  0
 28 31  1  0
 31 32  4  0
M  END
$$$$

 Created by Python create_sdf_string function

 34 40  0  0  0  0  0  0  0  0999 V2000
    5.5326   -8.7914   16.7623 C   0  0  0  0  0  0  0  0  0  0  0  0
   10.1740   -2.5295   25.4399 C   0  0  0  0  0  0  0  0  0  0  0  0
    9.8447   -4.6286   19.1797 C   0  0  0  0  0  0  0  0  0  0  0  0
    2.1328  -10.1568   16.6007 C   0  0  0  0  0  0  0  0  0  0  0  0
    3.4499  -10.9555   18.7914 C   0  0  0  0  0  0  0  0  0  0  0  0
    4.0773  -10.1257   17.9122 C   0  0  0  0  0  0  0  0  0  0  0  0
   -0.4785  -11.0082   16.1951 N   0  0  0  0  0  0  0  0  0  0  0  0
   10.3447   -3.8577   25.0230 C   0  0  0  0  0  0  0  0  0  0  0  0
    7.0334   -6.9307   17.2066 C   0  0  0  0  0  0  0  0  0  0  0  0
    4.3968   -9.0238   15.9672 C   0  0  0  0  0  0  0  0  0  0  0  0
    7.5456   -8.3436   15.4331 C   0  0  0  0  0  0  0  0  0  0  0  0
   10.5385   -3.6106   18.5112 C   0  0  0  0  0  0  0  0  0  0  0  0
    1.4965  -11.0055   17.5155 C   0  0  0  0  0  0  0  0  0  0  0  0
    9.7758   -4.5276   16.4166 C   0  0  0  0  0  0  0  0  0  0  0  0
    2.1916  -11.3763   18.6327 N   0  0  0  0  0  0  0  0  0  0  0  0
    3.4391   -9.7818   16.7845 C   0  0  0  0  0  0  0  0  0  0  0  0
    5.3545   -9.4827   17.9478 O   0  0  0  0  0  0  0  0  0  0  0  0
    1.4082   -9.7099   15.5093 C   0  0  0  0  0  0  0  0  0  0  0  0
   10.3466   -3.1519   22.7178 C   0  0  0  0  0  0  0  0  0  0  0  0
    8.1276   -6.2989   16.4534 N   0  0  0  0  0  0  0  0  0  0  0  0
    8.4761   -7.1455   15.3657 C   0  0  0  0  0  0  0  0  0  0  0  0
   11.0413   -2.5564   20.5064 N   0  0  0  0  0  0  0  0  0  0  0  0
   10.0754   -1.5333   24.4671 C   0  0  0  0  0  0  0  0  0  0  0  0
    0.1176  -10.1621   15.2977 C   0  0  0  0  0  0  0  0  0  0  0  0
   10.5177   -3.6057   17.1069 C   0  0  0  0  0  0  0  0  0  0  0  0
   10.1941   -1.8217   23.1190 N   0  0  0  0  0  0  0  0  0  0  0  0
    0.1887  -11.4410   17.2931 C   0  0  0  0  0  0  0  0  0  0  0  0
    9.9158   -4.5736   20.6052 C   0  0  0  0  0  0  0  0  0  0  0  0
    6.4501   -7.9760   16.3964 C   0  0  0  0  0  0  0  0  0  0  0  0
   10.4173   -4.1619   23.6635 C   0  0  0  0  0  0  0  0  0  0  0  0
   11.1110   -2.6212   19.1756 N   0  0  0  0  0  0  0  0  0  0  0  0
   10.4386   -3.4619   21.2782 C   0  0  0  0  0  0  0  0  0  0  0  0
    9.1221   -5.5110   18.4600 C   0  0  0  0  0  0  0  0  0  0  0  0
    9.0370   -5.4785   17.0874 C   0  0  0  0  0  0  0  0  0  0  0  0
  1 10  1  0
  1 17  2  0
  1 29  1  0
  2  8  4  0
  2 23  4  0
  3 12  4  0
  3 28  4  0
  3 33  4  0
  4 13  4  0
  4 16  4  0
  4 18  4  0
  5  6  4  0
  5 15  4  0
  6 16  4  0
  6 17  1  0
  7 24  4  0
  7 27  4  0
  8 30  4  0
  9 20  1  0
  9 29  1  0
 10 16  1  0
 11 21  1  0
 11 29  1  0
 12 25  4  0
 12 31  4  0
 13 15  4  0
 13 27  4  0
 14 25  4  0
 14 34  4  0
 18 24  4  0
 19 26  4  0
 19 30  4  0
 19 32  1  0
 20 21  1  0
 20 34  1  0
 22 31  4  0
 22 32  4  0
 23 26  4  0
 28 32  4  0
 33 34  4  0
M  END
$$$$

 Created by Python create_sdf_string function

 34 57  0  0  0  0  0  0  0  0999 V2000
    5.5382   -8.7901   16.8906 F   0  0  0  0  0  0  0  0  0  0  0  0
   10.1006   -2.5677   25.3554 C   0  0  0  0  0  0  0  0  0  0  0  0
    9.8520   -4.6060   19.1583 C   0  0  0  0  0  0  0  0  0  0  0  0
    2.1063  -10.0796   16.3672 C   0  0  0  0  0  0  0  0  0  0  0  0
    3.4927  -11.0859   18.8107 Se  0  0  0  0  0  0  0  0  0  0  0  0
    4.0322  -10.1696   17.9257 C   0  0  0  0  0  0  0  0  0  0  0  0
   -0.6080  -10.9328   16.2984 N   0  0  0  0  0  0  0  0  0  0  0  0
   10.3098   -3.8503   24.9981 C   0  0  0  0  0  0  0  0  0  0  0  0
    7.0638   -6.7748   17.2741 C   0  0  0  0  0  0  0  0  0  0  0  0
    4.4459   -8.7483   16.0275 P   0  0  0  0  0  0  0  0  0  0  0  0
    7.4027   -8.2569   15.3767 C   0  0  0  0  0  0  0  0  0  0  0  0
   10.3889   -3.6091   18.5163 C   0  0  0  0  0  0  0  0  0  0  0  0
    1.7259  -11.2700   17.5018 C   0  0  0  0  0  0  0  0  0  0  0  0
    9.8540   -4.4743   16.4559 C   0  0  0  0  0  0  0  0  0  0  0  0
    2.3648  -11.3525   18.6212 N   0  0  0  0  0  0  0  0  0  0  0  0
    3.4575   -9.7986   16.8124 C   0  0  0  0  0  0  0  0  0  0  0  0
    5.2739   -9.5160   18.0233 O   0  0  0  0  0  0  0  0  0  0  0  0
    1.4679   -9.8133   15.3674 C   0  0  0  0  0  0  0  0  0  0  0  0
   10.4273   -3.1769   22.8356 C   0  0  0  0  0  0  0  0  0  0  0  0
    8.2281   -6.3543   16.5454 N   0  0  0  0  0  0  0  0  0  0  0  0
    8.2468   -7.2192   15.2534 C   0  0  0  0  0  0  0  0  0  0  0  0
   11.1118   -2.6500   20.5043 F   0  0  0  0  0  0  0  0  0  0  0  0
   10.0369   -1.4838   24.4141 C   0  0  0  0  0  0  0  0  0  0  0  0
    0.1547  -10.4504   15.1393 C   0  0  0  0  0  0  0  0  0  0  0  0
   10.4836   -3.5687   17.0718 C   0  0  0  0  0  0  0  0  0  0  0  0
   10.2189   -1.8079   23.1309 N   0  0  0  0  0  0  0  0  0  0  0  0
    0.0968  -11.6432   17.3810 C   0  0  0  0  0  0  0  0  0  0  0  0
    9.8339   -4.4660   20.6419 C   0  0  0  0  0  0  0  0  0  0  0  0
    6.4258   -7.8716   16.4398 C   0  0  0  0  0  0  0  0  0  0  0  0
   10.4038   -4.1953   23.7711 C   0  0  0  0  0  0  0  0  0  0  0  0
   11.1006   -2.6058   19.1782 N   0  0  0  0  0  0  0  0  0  0  0  0
   10.4268   -3.4567   21.3666 C   0  0  0  0  0  0  0  0  0  0  0  0
    8.9142   -5.6410   18.4551 C   0  0  0  0  0  0  0  0  0  0  0  0
    8.9870   -5.4570   17.1533 C   0  0  0  0  0  0  0  0  0  0  0  0
  1 10  1  0
  1 17  2  0
  2  8  4  0
  2 23  4  0
  3 12  4  0
  3 28  3  0
  3 33  4  0
  4 10  2  0
  4 13  4  0
  4 16  4  0
  4 18  4  0
  4 31  1  0
  5  6  3  0
  5 15  4  0
  5 22  3  0
  5 33  3  0
  6 12  3  0
  6 16  4  0
  6 17  1  0
  7 27  4  0
  7 31  1  0
  8 30  4  0
  9 20  1  0
  9 24  1  0
  9 28  1  0
  9 29  1  0
  9 32  3  0
  9 33  3  0
 10 11  4  0
 10 15  4  0
 10 16  1  0
 11 21  1  0
 11 29  1  0
 12 25  4  0
 12 31  4  0
 13 15  4  0
 13 19  2  0
 13 22  1  0
 13 27  4  0
 14 25  4  0
 14 34  4  0
 18 24  4  0
 19 26  4  0
 19 30  4  0
 19 32  1  0
 20 21  3  0
 20 24  1  0
 20 34  4  0
 22 31  4  0
 22 32  4  0
 23 26  4  0
 25 26  2  0
 26 27  3  0
 26 28  2  0
 28 32  4  0
 31 34  4  0
 33 34  4  0
M  END
$$$$

 Created by Python create_sdf_string function

 34 40  0  0  0  0  0  0  0  0999 V2000
    5.4828   -8.7483   16.8567 C   0  0  0  0  0  0  0  0  0  0  0  0
   10.0932   -2.5176   25.3948 C   0  0  0  0  0  0  0  0  0  0  0  0
    9.7714   -4.5621   19.2087 C   0  0  0  0  0  0  0  0  0  0  0  0
    2.1521  -10.2308   16.5630 C   0  0  0  0  0  0  0  0  0  0  0  0
    3.5161  -11.0046   18.7920 C   0  0  0  0  0  0  0  0  0  0  0  0
    4.0846  -10.1441   17.9339 C   0  0  0  0  0  0  0  0  0  0  0  0
   -0.4610  -11.1286   16.2037 N   0  0  0  0  0  0  0  0  0  0  0  0
   10.3026   -3.8360   25.0275 C   0  0  0  0  0  0  0  0  0  0  0  0
    7.0399   -6.8532   17.2275 C   0  0  0  0  0  0  0  0  0  0  0  0
    4.3376   -8.9032   16.1039 N   0  0  0  0  0  0  0  0  0  0  0  0
    7.3574   -8.2330   15.3626 C   0  0  0  0  0  0  0  0  0  0  0  0
   10.4779   -3.5843   18.5054 C   0  0  0  0  0  0  0  0  0  0  0  0
    1.5581  -11.0653   17.5181 C   0  0  0  0  0  0  0  0  0  0  0  0
    9.7633   -4.5504   16.4524 C   0  0  0  0  0  0  0  0  0  0  0  0
    2.2824  -11.4810   18.6055 N   0  0  0  0  0  0  0  0  0  0  0  0
    3.4332   -9.7746   16.8039 C   0  0  0  0  0  0  0  0  0  0  0  0
    5.3147   -9.4940   17.9784 O   0  0  0  0  0  0  0  0  0  0  0  0
    1.4522   -9.9021   15.4269 C   0  0  0  0  0  0  0  0  0  0  0  0
   10.3740   -3.1436   22.7405 C   0  0  0  0  0  0  0  0  0  0  0  0
    8.1991   -6.3665   16.5004 N   0  0  0  0  0  0  0  0  0  0  0  0
    8.3383   -7.1178   15.3216 C   0  0  0  0  0  0  0  0  0  0  0  0
   11.1212   -2.5818   20.4859 C   0  0  0  0  0  0  0  0  0  0  0  0
   10.0522   -1.5210   24.4319 C   0  0  0  0  0  0  0  0  0  0  0  0
    0.1294  -10.3349   15.2483 C   0  0  0  0  0  0  0  0  0  0  0  0
   10.4862   -3.5967   17.1209 C   0  0  0  0  0  0  0  0  0  0  0  0
   10.2413   -1.8297   23.0955 N   0  0  0  0  0  0  0  0  0  0  0  0
    0.2260  -11.4951   17.3078 C   0  0  0  0  0  0  0  0  0  0  0  0
    9.8723   -4.4822   20.6355 C   0  0  0  0  0  0  0  0  0  0  0  0
    6.3847   -7.8539   16.4378 C   0  0  0  0  0  0  0  0  0  0  0  0
   10.4352   -4.1583   23.6834 C   0  0  0  0  0  0  0  0  0  0  0  0
   11.1318   -2.6451   19.1560 N   0  0  0  0  0  0  0  0  0  0  0  0
   10.4573   -3.4368   21.3127 C   0  0  0  0  0  0  0  0  0  0  0  0
    9.0526   -5.4748   18.5054 C   0  0  0  0  0  0  0  0  0  0  0  0
    9.0078   -5.4890   17.1284 C   0  0  0  0  0  0  0  0  0  0  0  0
  1 10  1  0
  1 17  2  0
  1 29  1  0
  2  8  4  0
  2 23  4  0
  3 12  4  0
  3 28  4  0
  3 33  4  0
  4 13  4  0
  4 16  4  0
  4 18  4  0
  5  6  4  0
  5 15  4  0
  6 16  4  0
  6 17  1  0
  7 24  4  0
  7 27  4  0
  8 30  4  0
  9 20  1  0
  9 29  1  0
 10 16  1  0
 11 21  1  0
 11 29  1  0
 12 25  4  0
 12 31  4  0
 13 15  4  0
 13 27  4  0
 14 25  4  0
 14 34  4  0
 18 24  4  0
 19 26  4  0
 19 30  4  0
 19 32  1  0
 20 21  1  0
 20 34  1  0
 22 31  4  0
 22 32  4  0
 23 26  4  0
 28 32  4  0
 33 34  4  0
M  END
$$$$

 Created by Python create_sdf_string function

 34 48  0  0  0  0  0  0  0  0999 V2000
    5.3623   -8.5057   16.7199 C   0  0  0  0  0  0  0  0  0  0  0  0
   10.0488   -2.6464   25.4062 C   0  0  0  0  0  0  0  0  0  0  0  0
    9.7480   -4.7213   19.1887 C   0  0  0  0  0  0  0  0  0  0  0  0
    2.0886  -10.2155   16.5199 C   0  0  0  0  0  0  0  0  0  0  0  0
    3.5313  -11.0486   18.8029 C   0  0  0  0  0  0  0  0  0  0  0  0
    4.0049  -10.1230   17.9144 C   0  0  0  0  0  0  0  0  0  0  0  0
   -0.5444  -10.9775   16.4090 N   0  0  0  0  0  0  0  0  0  0  0  0
   10.2145   -3.7815   24.9858 C   0  0  0  0  0  0  0  0  0  0  0  0
    7.1096   -6.6994   17.0822 C   0  0  0  0  0  0  0  0  0  0  0  0
    4.2362   -8.9113   15.9855 N   0  0  0  0  0  0  0  0  0  0  0  0
    7.3492   -8.1763   15.2005 C   0  0  0  0  0  0  0  0  0  0  0  0
   10.3927   -3.7611   18.6482 C   0  0  0  0  0  0  0  0  0  0  0  0
    1.4952  -11.0181   17.4738 C   0  0  0  0  0  0  0  0  0  0  0  0
    9.5730   -4.6122   16.4345 C   0  0  0  0  0  0  0  0  0  0  0  0
    2.2226  -11.4016   18.4832 N   0  0  0  0  0  0  0  0  0  0  0  0
    3.3378   -9.8241   16.8060 C   0  0  0  0  0  0  0  0  0  0  0  0
    5.2208   -9.5234   17.8268 O   0  0  0  0  0  0  0  0  0  0  0  0
    1.3241   -9.6663   15.4480 C   0  0  0  0  0  0  0  0  0  0  0  0
   10.2779   -3.0332   22.8082 C   0  0  0  0  0  0  0  0  0  0  0  0
    8.1184   -6.2547   16.5243 N   0  0  0  0  0  0  0  0  0  0  0  0
    8.1503   -7.0777   15.4211 C   0  0  0  0  0  0  0  0  0  0  0  0
   11.1303   -2.5329   20.3914 C   0  0  0  0  0  0  0  0  0  0  0  0
   10.0435   -1.4793   24.3520 C   0  0  0  0  0  0  0  0  0  0  0  0
    0.1470  -10.1772   15.3339 C   0  0  0  0  0  0  0  0  0  0  0  0
   10.4946   -3.6526   17.0686 C   0  0  0  0  0  0  0  0  0  0  0  0
   10.3259   -1.7191   23.1260 N   0  0  0  0  0  0  0  0  0  0  0  0
    0.3179  -11.4295   17.2997 C   0  0  0  0  0  0  0  0  0  0  0  0
    9.8555   -4.4097   20.5412 C   0  0  0  0  0  0  0  0  0  0  0  0
    6.3502   -7.8622   16.4335 C   0  0  0  0  0  0  0  0  0  0  0  0
   10.6152   -4.1828   23.6632 C   0  0  0  0  0  0  0  0  0  0  0  0
   11.2098   -2.6394   19.0732 N   0  0  0  0  0  0  0  0  0  0  0  0
   10.5561   -3.4282   21.2495 C   0  0  0  0  0  0  0  0  0  0  0  0
    9.1463   -5.2189   18.5113 C   0  0  0  0  0  0  0  0  0  0  0  0
    9.0144   -5.3213   17.3377 C   0  0  0  0  0  0  0  0  0  0  0  0
  1 10  1  0
  1 17  2  0
  1 29  1  0
  2  8  4  0
  2 14  1  0
  2 15  3  0
  2 18  1  0
  2 23  4  0
  3 12  4  0
  3 33  4  0
  4 13  4  0
  4 16  4  0
  4 18  4  0
  5  6  4  0
  5 15  4  0
  6 16  4  0
  7 19  4  0
  7 24  4  0
  7 27  4  0
  8 30  4  0
  9 17  1  0
  9 20  1  0
 10 11  3  0
 10 16  1  0
 11 21  1  0
 11 29  1  0
 12 25  4  0
 12 31  4  0
 13 17  1  0
 13 25  2  0
 13 27  4  0
 13 28  1  0
 14 34  4  0
 16 27  4  0
 17 31  4  0
 18 24  4  0
 19 30  4  0
 19 32  1  0
 20 21  1  0
 22 27  2  0
 22 30  3  0
 22 31  4  0
 22 32  4  0
 23 26  4  0
 23 27  2  0
 28 32  4  0
 31 32  4  0
 33 34  4  0
M  END
$$$$

 Created by Python create_sdf_string function

 34 40  0  0  0  0  0  0  0  0999 V2000
    5.3515   -8.6730   16.7639 C   0  0  0  0  0  0  0  0  0  0  0  0
   10.0323   -2.5252   25.3665 C   0  0  0  0  0  0  0  0  0  0  0  0
    9.7953   -4.5363   19.1931 C   0  0  0  0  0  0  0  0  0  0  0  0
    2.1154  -10.1485   16.5902 C   0  0  0  0  0  0  0  0  0  0  0  0
    3.4628  -11.0216   18.7545 C   0  0  0  0  0  0  0  0  0  0  0  0
    4.0585  -10.1322   17.8923 C   0  0  0  0  0  0  0  0  0  0  0  0
   -0.4666  -10.9877   16.2725 N   0  0  0  0  0  0  0  0  0  0  0  0
   10.2961   -3.8357   24.9596 C   0  0  0  0  0  0  0  0  0  0  0  0
    6.9291   -6.8193   17.1786 C   0  0  0  0  0  0  0  0  0  0  0  0
    4.2249   -8.9113   16.0707 N   0  0  0  0  0  0  0  0  0  0  0  0
    7.2645   -8.1478   15.2776 C   0  0  0  0  0  0  0  0  0  0  0  0
   10.5062   -3.6025   18.4731 C   0  0  0  0  0  0  0  0  0  0  0  0
    1.5181  -11.0219   17.5140 C   0  0  0  0  0  0  0  0  0  0  0  0
    9.6908   -4.5523   16.4507 C   0  0  0  0  0  0  0  0  0  0  0  0
    2.2171  -11.4631   18.5848 N   0  0  0  0  0  0  0  0  0  0  0  0
    3.3984   -9.7389   16.8036 C   0  0  0  0  0  0  0  0  0  0  0  0
    5.2808   -9.4174   17.8757 O   0  0  0  0  0  0  0  0  0  0  0  0
    1.3837   -9.7292   15.4805 C   0  0  0  0  0  0  0  0  0  0  0  0
   10.4352   -3.0743   22.6948 C   0  0  0  0  0  0  0  0  0  0  0  0
    8.1032   -6.3246   16.5387 N   0  0  0  0  0  0  0  0  0  0  0  0
    8.2747   -7.0593   15.3195 C   0  0  0  0  0  0  0  0  0  0  0  0
   11.1824   -2.5249   20.3917 C   0  0  0  0  0  0  0  0  0  0  0  0
   10.0350   -1.5019   24.4311 C   0  0  0  0  0  0  0  0  0  0  0  0
    0.0775  -10.1536   15.3620 C   0  0  0  0  0  0  0  0  0  0  0  0
   10.4892   -3.6420   17.0864 C   0  0  0  0  0  0  0  0  0  0  0  0
   10.2650   -1.7563   23.0995 N   0  0  0  0  0  0  0  0  0  0  0  0
    0.2273  -11.4185   17.3117 C   0  0  0  0  0  0  0  0  0  0  0  0
    9.9147   -4.4283   20.6171 C   0  0  0  0  0  0  0  0  0  0  0  0
    6.3023   -7.8398   16.3689 C   0  0  0  0  0  0  0  0  0  0  0  0
   10.4833   -4.1115   23.6048 C   0  0  0  0  0  0  0  0  0  0  0  0
   11.2121   -2.6505   19.0721 N   0  0  0  0  0  0  0  0  0  0  0  0
   10.5130   -3.3563   21.2552 C   0  0  0  0  0  0  0  0  0  0  0  0
    9.0419   -5.4286   18.5294 C   0  0  0  0  0  0  0  0  0  0  0  0
    8.9467   -5.4423   17.1829 C   0  0  0  0  0  0  0  0  0  0  0  0
  1 10  1  0
  1 17  2  0
  1 29  1  0
  2  8  4  0
  2 23  4  0
  3 12  4  0
  3 28  4  0
  3 33  4  0
  4 13  4  0
  4 16  4  0
  4 18  4  0
  5  6  4  0
  5 15  4  0
  6 16  4  0
  6 17  1  0
  7 24  4  0
  7 27  4  0
  8 30  4  0
  9 20  1  0
  9 29  1  0
 10 16  1  0
 11 21  1  0
 11 29  1  0
 12 25  4  0
 12 31  4  0
 13 15  4  0
 13 27  4  0
 14 25  4  0
 14 34  4  0
 18 24  4  0
 19 26  4  0
 19 30  4  0
 19 32  1  0
 20 21  1  0
 20 34  1  0
 22 31  4  0
 22 32  4  0
 23 26  4  0
 28 32  4  0
 33 34  4  0
M  END
$$$$

 Created by Python create_sdf_string function

 34 55  0  0  0  0  0  0  0  0999 V2000
    5.3032   -8.5817   16.8558 C   0  0  0  0  0  0  0  0  0  0  0  0
   10.1108   -2.6292   25.3955 C   0  0  0  0  0  0  0  0  0  0  0  0
    9.7326   -4.5992   19.1686 C   0  0  0  0  0  0  0  0  0  0  0  0
    2.0459  -10.0775   16.4637 C   0  0  0  0  0  0  0  0  0  0  0  0
    3.4563  -11.0980   18.7728 C   0  0  0  0  0  0  0  0  0  0  0  0
    3.9617  -10.1488   17.9997 F   0  0  0  0  0  0  0  0  0  0  0  0
   -0.5657  -10.9589   16.3175 N   0  0  0  0  0  0  0  0  0  0  0  0
   10.2494   -3.7515   24.9494 C   0  0  0  0  0  0  0  0  0  0  0  0
    6.9614   -6.7877   17.1171 C   0  0  0  0  0  0  0  0  0  0  0  0
    4.0954   -8.9323   15.9407 N   0  0  0  0  0  0  0  0  0  0  0  0
    7.3763   -8.1025   15.1903 C   0  0  0  0  0  0  0  0  0  0  0  0
   10.4909   -3.5307   18.4130 C   0  0  0  0  0  0  0  0  0  0  0  0
    1.4817  -10.9591   17.4666 C   0  0  0  0  0  0  0  0  0  0  0  0
    9.5901   -4.5192   16.6287 C   0  0  0  0  0  0  0  0  0  0  0  0
    2.1966  -11.3328   18.4783 N   0  0  0  0  0  0  0  0  0  0  0  0
    3.5153   -9.8464   16.7289 C   0  0  0  0  0  0  0  0  0  0  0  0
    5.3072   -9.3590   17.8951 O   0  0  0  0  0  0  0  0  0  0  0  0
    1.3290   -9.6440   15.2954 C   0  0  0  0  0  0  0  0  0  0  0  0
   10.4876   -3.0056   22.7241 C   0  0  0  0  0  0  0  0  0  0  0  0
    7.9922   -6.2515   16.6130 N   0  0  0  0  0  0  0  0  0  0  0  0
    8.2559   -7.1005   15.4580 C   0  0  0  0  0  0  0  0  0  0  0  0
   11.2173   -2.5788   20.5108 C   0  0  0  0  0  0  0  0  0  0  0  0
    9.9519   -1.4692   24.4693 C   0  0  0  0  0  0  0  0  0  0  0  0
    0.0656  -10.1295   15.3158 C   0  0  0  0  0  0  0  0  0  0  0  0
   10.5328   -3.7360   17.1338 C   0  0  0  0  0  0  0  0  0  0  0  0
   10.1584   -1.7228   23.2413 N   0  0  0  0  0  0  0  0  0  0  0  0
    0.1961  -11.5823   17.4031 C   0  0  0  0  0  0  0  0  0  0  0  0
    9.9153   -4.4112   20.5633 C   0  0  0  0  0  0  0  0  0  0  0  0
    6.2540   -7.8359   16.3682 C   0  0  0  0  0  0  0  0  0  0  0  0
   10.5513   -4.1553   23.4838 C   0  0  0  0  0  0  0  0  0  0  0  0
   11.2106   -2.5282   19.0045 N   0  0  0  0  0  0  0  0  0  0  0  0
   10.3791   -3.3420   21.3064 C   0  0  0  0  0  0  0  0  0  0  0  0
    9.1222   -5.5221   18.6584 C   0  0  0  0  0  0  0  0  0  0  0  0
    8.9765   -5.6128   17.0462 C   0  0  0  0  0  0  0  0  0  0  0  0
  1 10  1  0
  1 17  2  0
  1 29  1  0
  2  8  4  0
  2 22  1  0
  2 23  4  0
  3 12  4  0
  3 16  1  0
  3 28  4  0
  3 33  4  0
  4 13  4  0
  4 16  4  0
  4 18  4  0
  5  6  4  0
  5 15  4  0
  5 29  3  0
  6 16  4  0
  6 17  1  0
  7 24  4  0
  7 27  4  0
  7 29  4  0
  7 32  1  0
  8 30  4  0
  9 20  1  0
  9 29  1  0
  9 34  2  0
 10 16  4  0
 10 20  4  0
 10 24  4  0
 11 12  3  0
 11 18  2  0
 11 21  1  0
 11 29  1  0
 12 25  4  0
 12 31  4  0
 13 15  4  0
 13 21  1  0
 13 27  4  0
 14 33  3  0
 14 34  4  0
 16 29  1  0
 18 24  4  0
 18 27  2  0
 19 26  4  0
 19 30  4  0
 19 32  1  0
 20 21  1  0
 20 34  1  0
 22 31  4  0
 22 32  4  0
 23 24  3  0
 23 26  4  0
 24 31  2  0
 28 32  4  0
 33 34  4  0
M  END
$$$$

 Created by Python create_sdf_string function

 34 40  0  0  0  0  0  0  0  0999 V2000
    5.2909   -8.6563   16.7181 C   0  0  0  0  0  0  0  0  0  0  0  0
   10.0628   -2.5434   25.3800 C   0  0  0  0  0  0  0  0  0  0  0  0
    9.8012   -4.5448   19.2110 C   0  0  0  0  0  0  0  0  0  0  0  0
    2.0831  -10.1664   16.5669 C   0  0  0  0  0  0  0  0  0  0  0  0
    3.4299  -10.9991   18.7351 C   0  0  0  0  0  0  0  0  0  0  0  0
    4.0235  -10.1239   17.9000 C   0  0  0  0  0  0  0  0  0  0  0  0
   -0.5170  -10.9925   16.2678 N   0  0  0  0  0  0  0  0  0  0  0  0
   10.3342   -3.8343   24.9342 C   0  0  0  0  0  0  0  0  0  0  0  0
    6.8718   -6.8432   17.1877 C   0  0  0  0  0  0  0  0  0  0  0  0
    4.1662   -8.9484   16.0650 N   0  0  0  0  0  0  0  0  0  0  0  0
    7.2537   -8.1142   15.2619 C   0  0  0  0  0  0  0  0  0  0  0  0
   10.5151   -3.5733   18.4858 C   0  0  0  0  0  0  0  0  0  0  0  0
    1.4807  -11.0322   17.5120 C   0  0  0  0  0  0  0  0  0  0  0  0
    9.6867   -4.6112   16.4990 C   0  0  0  0  0  0  0  0  0  0  0  0
    2.1900  -11.4355   18.5933 N   0  0  0  0  0  0  0  0  0  0  0  0
    3.3518   -9.7527   16.7879 C   0  0  0  0  0  0  0  0  0  0  0  0
    5.2018   -9.3789   17.8729 N   0  0  0  0  0  0  0  0  0  0  0  0
    1.3480   -9.7374   15.4550 C   0  0  0  0  0  0  0  0  0  0  0  0
   10.3913   -3.0453   22.6725 C   0  0  0  0  0  0  0  0  0  0  0  0
    8.0739   -6.3304   16.5911 N   0  0  0  0  0  0  0  0  0  0  0  0
    8.3278   -7.0617   15.4083 C   0  0  0  0  0  0  0  0  0  0  0  0
   11.1908   -2.4829   20.4219 C   0  0  0  0  0  0  0  0  0  0  0  0
    9.9809   -1.4860   24.4635 C   0  0  0  0  0  0  0  0  0  0  0  0
    0.0311  -10.1583   15.3470 C   0  0  0  0  0  0  0  0  0  0  0  0
   10.4436   -3.6393   17.1143 C   0  0  0  0  0  0  0  0  0  0  0  0
   10.1902   -1.7436   23.1150 N   0  0  0  0  0  0  0  0  0  0  0  0
    0.1736  -11.4416   17.3252 C   0  0  0  0  0  0  0  0  0  0  0  0
    9.8713   -4.3918   20.5947 C   0  0  0  0  0  0  0  0  0  0  0  0
    6.2628   -7.8164   16.3088 C   0  0  0  0  0  0  0  0  0  0  0  0
   10.5040   -4.0894   23.5739 C   0  0  0  0  0  0  0  0  0  0  0  0
   11.2020   -2.6002   19.0814 N   0  0  0  0  0  0  0  0  0  0  0  0
   10.4961   -3.3204   21.2500 C   0  0  0  0  0  0  0  0  0  0  0  0
    9.0808   -5.4706   18.5543 C   0  0  0  0  0  0  0  0  0  0  0  0
    8.9321   -5.5040   17.1969 C   0  0  0  0  0  0  0  0  0  0  0  0
  1 10  1  0
  1 17  2  0
  1 29  1  0
  2  8  4  0
  2 23  4  0
  3 12  4  0
  3 28  4  0
  3 33  4  0
  4 13  4  0
  4 16  4  0
  4 18  4  0
  5  6  4  0
  5 15  4  0
  6 16  4  0
  6 17  1  0
  7 24  4  0
  7 27  4  0
  8 30  4  0
  9 20  1  0
  9 29  1  0
 10 16  1  0
 11 21  1  0
 11 29  1  0
 12 25  4  0
 12 31  4  0
 13 15  4  0
 13 27  4  0
 14 25  4  0
 14 34  4  0
 18 24  4  0
 19 26  4  0
 19 30  4  0
 19 32  1  0
 20 21  1  0
 20 34  1  0
 22 31  4  0
 22 32  4  0
 23 26  4  0
 28 32  4  0
 33 34  4  0
M  END
$$$$

 Created by Python create_sdf_string function

 34 44  0  0  0  0  0  0  0  0999 V2000
    5.3459   -8.6525   16.8654 C   0  0  0  0  0  0  0  0  0  0  0  0
   10.0441   -2.6406   25.2507 C   0  0  0  0  0  0  0  0  0  0  0  0
    9.9548   -4.6943   19.1367 C   0  0  0  0  0  0  0  0  0  0  0  0
    1.9413  -10.0785   16.5229 C   0  0  0  0  0  0  0  0  0  0  0  0
    3.4628  -11.0196   18.7750 C   0  0  0  0  0  0  0  0  0  0  0  0
    3.9884  -10.1688   17.9092 C   0  0  0  0  0  0  0  0  0  0  0  0
   -0.4568  -10.9067   16.2619 N   0  0  0  0  0  0  0  0  0  0  0  0
   10.4167   -3.9118   24.8702 C   0  0  0  0  0  0  0  0  0  0  0  0
    6.8328   -6.8058   17.1313 C   0  0  0  0  0  0  0  0  0  0  0  0
    4.1256   -8.8629   15.9865 N   0  0  0  0  0  0  0  0  0  0  0  0
    7.3297   -8.1340   15.2583 C   0  0  0  0  0  0  0  0  0  0  0  0
   10.4935   -3.3595   18.4963 C   0  0  0  0  0  0  0  0  0  0  0  0
    1.5032  -10.9159   17.4317 C   0  0  0  0  0  0  0  0  0  0  0  0
    9.6961   -4.6022   16.4475 C   0  0  0  0  0  0  0  0  0  0  0  0
    2.1840  -11.4613   18.7316 N   0  0  0  0  0  0  0  0  0  0  0  0
    3.3633   -9.6676   16.9656 O   0  0  0  0  0  0  0  0  0  0  0  0
    5.2342   -9.3211   17.9699 N   0  0  0  0  0  0  0  0  0  0  0  0
    1.3325   -9.5470   15.4797 C   0  0  0  0  0  0  0  0  0  0  0  0
   10.4675   -2.9791   22.6592 C   0  0  0  0  0  0  0  0  0  0  0  0
    8.0432   -6.3279   16.6428 N   0  0  0  0  0  0  0  0  0  0  0  0
    8.4304   -7.0991   15.4695 C   0  0  0  0  0  0  0  0  0  0  0  0
   11.2209   -2.4877   20.4075 C   0  0  0  0  0  0  0  0  0  0  0  0
   10.0560   -1.4305   24.4946 B   0  0  0  0  0  0  0  0  0  0  0  0
   10.4521   -3.6874   17.0799 C   0  0  0  0  0  0  0  0  0  0  0  0
   10.2607   -1.7428   23.1396 N   0  0  0  0  0  0  0  0  0  0  0  0
    0.1872  -11.5191   17.4730 C   0  0  0  0  0  0  0  0  0  0  0  0
    9.9191   -4.3669   20.7349 C   0  0  0  0  0  0  0  0  0  0  0  0
    6.2527   -7.7282   16.2967 C   0  0  0  0  0  0  0  0  0  0  0  0
   10.5576   -4.0169   23.6165 C   0  0  0  0  0  0  0  0  0  0  0  0
   11.1086   -2.5285   19.0650 N   0  0  0  0  0  0  0  0  0  0  0  0
   10.3907   -3.3998   21.2337 C   0  0  0  0  0  0  0  0  0  0  0  0
    9.0217   -5.4588   18.5675 C   0  0  0  0  0  0  0  0  0  0  0  0
    8.9191   -5.6944   17.1110 C   0  0  0  0  0  0  0  0  0  0  0  0
    0.0980  -10.0159   15.3602 He  0  0  0  0  0  0  0  0  0  0  0  0
  1 10  1  0
  1 17  2  0
  1 28  1  0
  2  8  4  0
  2 23  4  0
  3 12  4  0
  3 19  2  0
  3 27  4  0
  4 13  4  0
  4 18  4  0
  5  6  4  0
  5 15  4  0
  6 16  4  0
  6 17  1  0
  7 15  4  0
  7 26  4  0
  8 29  4  0
  9 20  1  0
  9 28  1  0
  9 32  4  0
 10 16  1  0
 11 19  2  0
 11 21  1  0
 11 23  4  0
 11 28  1  0
 12 24  4  0
 13 15  4  0
 13 26  4  0
 14 24  4  0
 15 28  3  0
 16 19  1  0
 16 20  2  0
 16 26  3  0
 19 25  4  0
 19 29  4  0
 19 31  1  0
 20 21  1  0
 20 33  2  0
 21 23  4  0
 22 30  4  0
 22 31  4  0
 23 25  4  0
 27 31  4  0
 32 33  4  0
M  END
$$$$

 Created by Python create_sdf_string function

 34 40  0  0  0  0  0  0  0  0999 V2000
    5.2832   -8.6526   16.7830 C   0  0  0  0  0  0  0  0  0  0  0  0
   10.0891   -2.5643   25.3278 C   0  0  0  0  0  0  0  0  0  0  0  0
    9.8092   -4.5340   19.2044 C   0  0  0  0  0  0  0  0  0  0  0  0
    2.0770  -10.0792   16.6634 C   0  0  0  0  0  0  0  0  0  0  0  0
    3.4735  -10.9708   18.7736 C   0  0  0  0  0  0  0  0  0  0  0  0
    3.9944  -10.0752   17.9299 C   0  0  0  0  0  0  0  0  0  0  0  0
   -0.4632  -10.9376   16.2793 N   0  0  0  0  0  0  0  0  0  0  0  0
   10.3854   -3.8366   24.8972 C   0  0  0  0  0  0  0  0  0  0  0  0
    6.8232   -6.8361   17.1814 C   0  0  0  0  0  0  0  0  0  0  0  0
    4.1278   -8.8786   16.1233 N   0  0  0  0  0  0  0  0  0  0  0  0
    7.2549   -8.1428   15.2941 C   0  0  0  0  0  0  0  0  0  0  0  0
   10.4968   -3.5576   18.4763 C   0  0  0  0  0  0  0  0  0  0  0  0
    1.4977  -10.9870   17.5754 C   0  0  0  0  0  0  0  0  0  0  0  0
    9.7063   -4.6107   16.4659 C   0  0  0  0  0  0  0  0  0  0  0  0
    2.2308  -11.4394   18.6448 N   0  0  0  0  0  0  0  0  0  0  0  0
    3.3146   -9.6939   16.8621 C   0  0  0  0  0  0  0  0  0  0  0  0
    5.2098   -9.3720   17.8959 N   0  0  0  0  0  0  0  0  0  0  0  0
    1.3664   -9.6141   15.5653 C   0  0  0  0  0  0  0  0  0  0  0  0
   10.4449   -3.0451   22.6535 C   0  0  0  0  0  0  0  0  0  0  0  0
    8.0638   -6.3702   16.6288 N   0  0  0  0  0  0  0  0  0  0  0  0
    8.3663   -7.1252   15.4635 C   0  0  0  0  0  0  0  0  0  0  0  0
   11.1617   -2.4406   20.3881 C   0  0  0  0  0  0  0  0  0  0  0  0
   10.0517   -1.5234   24.4473 C   0  0  0  0  0  0  0  0  0  0  0  0
    0.0768  -10.0646   15.4044 C   0  0  0  0  0  0  0  0  0  0  0  0
   10.4511   -3.6464   17.0996 C   0  0  0  0  0  0  0  0  0  0  0  0
   10.2665   -1.7348   23.0999 N   0  0  0  0  0  0  0  0  0  0  0  0
    0.2020  -11.4059   17.3399 C   0  0  0  0  0  0  0  0  0  0  0  0
    9.9412   -4.4059   20.6128 C   0  0  0  0  0  0  0  0  0  0  0  0
    6.2259   -7.7815   16.2678 C   0  0  0  0  0  0  0  0  0  0  0  0
   10.5499   -4.0741   23.5517 C   0  0  0  0  0  0  0  0  0  0  0  0
   11.1524   -2.5660   19.0476 N   0  0  0  0  0  0  0  0  0  0  0  0
   10.5307   -3.3118   21.2363 C   0  0  0  0  0  0  0  0  0  0  0  0
    9.0999   -5.4853   18.5445 C   0  0  0  0  0  0  0  0  0  0  0  0
    8.9370   -5.5338   17.1864 C   0  0  0  0  0  0  0  0  0  0  0  0
  1 10  1  0
  1 17  2  0
  1 29  1  0
  2  8  4  0
  2 23  4  0
  3 12  4  0
  3 28  4  0
  3 33  4  0
  4 13  4  0
  4 16  4  0
  4 18  4  0
  5  6  4  0
  5 15  4  0
  6 16  4  0
  6 17  1  0
  7 24  4  0
  7 27  4  0
  8 30  4  0
  9 20  1  0
  9 29  1  0
 10 16  1  0
 11 21  1  0
 11 29  1  0
 12 25  4  0
 12 31  4  0
 13 15  4  0
 13 27  4  0
 14 25  4  0
 14 34  4  0
 18 24  4  0
 19 26  4  0
 19 30  4  0
 19 32  1  0
 20 21  1  0
 20 34  1  0
 22 31  4  0
 22 32  4  0
 23 26  4  0
 28 32  4  0
 33 34  4  0
M  END
$$$$

 Created by Python create_sdf_string function

 34 56  0  0  0  0  0  0  0  0999 V2000
    5.3278   -8.7543   16.6702 C   0  0  0  0  0  0  0  0  0  0  0  0
   10.0984   -2.5697   25.3469 C   0  0  0  0  0  0  0  0  0  0  0  0
    9.8863   -4.5399   19.2134 C   0  0  0  0  0  0  0  0  0  0  0  0
    2.0529  -10.1006   16.7835 C   0  0  0  0  0  0  0  0  0  0  0  0
    3.4017  -10.9128   18.7369 C   0  0  0  0  0  0  0  0  0  0  0  0
    3.9580  -10.0826   18.0226 C   0  0  0  0  0  0  0  0  0  0  0  0
   -0.4330  -10.9719   16.2869 N   0  0  0  0  0  0  0  0  0  0  0  0
   10.3454   -3.8270   24.8442 C   0  0  0  0  0  0  0  0  0  0  0  0
    6.8356   -6.8737   17.3611 C   0  0  0  0  0  0  0  0  0  0  0  0
    4.1260   -8.8789   16.1476 F   0  0  0  0  0  0  0  0  0  0  0  0
    7.3160   -8.1168   15.2716 C   0  0  0  0  0  0  0  0  0  0  0  0
   10.4660   -3.4901   18.4060 C   0  0  0  0  0  0  0  0  0  0  0  0
    1.6723  -10.9526   17.6469 C   0  0  0  0  0  0  0  0  0  0  0  0
    9.6898   -4.5995   16.5382 C   0  0  0  0  0  0  0  0  0  0  0  0
    2.1771  -11.4692   18.6949 N   0  0  0  0  0  0  0  0  0  0  0  0
    3.2588   -9.6179   16.8573 C   0  0  0  0  0  0  0  0  0  0  0  0
    5.0653   -9.4087   17.9325 N   0  0  0  0  0  0  0  0  0  0  0  0
    1.3257   -9.5704   15.5758 C   0  0  0  0  0  0  0  0  0  0  0  0
   10.4436   -2.9668   22.5825 C   0  0  0  0  0  0  0  0  0  0  0  0
    8.0706   -6.2321   16.6949 N   0  0  0  0  0  0  0  0  0  0  0  0
    8.3203   -7.1267   15.3455 C   0  0  0  0  0  0  0  0  0  0  0  0
   11.1043   -2.5024   20.4174 C   0  0  0  0  0  0  0  0  0  0  0  0
   10.1664   -1.5715   24.4021 C   0  0  0  0  0  0  0  0  0  0  0  0
    0.0640  -10.0754   15.4641 C   0  0  0  0  0  0  0  0  0  0  0  0
   10.5244   -3.6129   17.1051 C   0  0  0  0  0  0  0  0  0  0  0  0
   10.3461   -1.6791   23.0736 N   0  0  0  0  0  0  0  0  0  0  0  0
    0.1170  -11.3587   17.2527 C   0  0  0  0  0  0  0  0  0  0  0  0
    9.9088   -4.3895   20.6551 C   0  0  0  0  0  0  0  0  0  0  0  0
    6.2140   -7.9379   16.2376 C   0  0  0  0  0  0  0  0  0  0  0  0
   10.5704   -4.1030   23.5966 C   0  0  0  0  0  0  0  0  0  0  0  0
   11.1113   -2.5027   19.0934 N   0  0  0  0  0  0  0  0  0  0  0  0
   10.5367   -3.2420   21.3323 C   0  0  0  0  0  0  0  0  0  0  0  0
    9.1621   -5.5186   18.4562 C   0  0  0  0  0  0  0  0  0  0  0  0
    9.0693   -5.5474   17.1475 C   0  0  0  0  0  0  0  0  0  0  0  0
  1 10  1  0
  1 17  2  0
  1 29  3  0
  2  8  4  0
  2 16  3  0
  2 23  4  0
  2 31  1  0
  3  9  2  0
  3 11  3  0
  3 28  4  0
  3 31  1  0
  3 33  4  0
  4 13  4  0
  4 16  4  0
  4 18  4  0
  5  6  4  0
  5  9  2  0
  5 15  4  0
  5 25  3  0
  6 16  4  0
  6 17  1  0
  7 24  4  0
  7 27  4  0
  7 28  2  0
  9 13  4  0
  9 20  1  0
  9 29  1  0
 10 16  1  0
 11 21  1  0
 11 29  1  0
 12 25  4  0
 12 28  2  0
 12 31  4  0
 13 15  4  0
 13 27  4  0
 13 33  1  0
 14 25  4  0
 14 34  4  0
 16 32  3  0
 17 29  3  0
 18 24  4  0
 19 22  1  0
 19 26  4  0
 19 30  4  0
 19 32  4  0
 20 21  1  0
 20 34  4  0
 21 22  2  0
 22 29  3  0
 22 31  4  0
 22 32  4  0
 23 26  4  0
 23 32  2  0
 25 27  1  0
 28 32  4  0
 33 34  4  0
M  END
$$$$

 Created by Python create_sdf_string function

 34 40  0  0  0  0  0  0  0  0999 V2000
    5.2938   -8.6946   16.7504 C   0  0  0  0  0  0  0  0  0  0  0  0
   10.1335   -2.5338   25.3270 C   0  0  0  0  0  0  0  0  0  0  0  0
    9.8515   -4.5186   19.2067 C   0  0  0  0  0  0  0  0  0  0  0  0
    2.0347  -10.0671   16.7002 C   0  0  0  0  0  0  0  0  0  0  0  0
    3.4073  -10.9417   18.8041 C   0  0  0  0  0  0  0  0  0  0  0  0
    3.9420  -10.0491   17.9281 C   0  0  0  0  0  0  0  0  0  0  0  0
   -0.4870  -10.9648   16.2868 N   0  0  0  0  0  0  0  0  0  0  0  0
   10.3614   -3.8284   24.8906 C   0  0  0  0  0  0  0  0  0  0  0  0
    6.8778   -6.9293   17.2613 C   0  0  0  0  0  0  0  0  0  0  0  0
    4.1226   -8.8689   16.1289 N   0  0  0  0  0  0  0  0  0  0  0  0
    7.2508   -8.1340   15.2823 C   0  0  0  0  0  0  0  0  0  0  0  0
   10.5069   -3.5354   18.4605 C   0  0  0  0  0  0  0  0  0  0  0  0
    1.4631  -10.9842   17.6029 C   0  0  0  0  0  0  0  0  0  0  0  0
    9.7377   -4.5962   16.4718 C   0  0  0  0  0  0  0  0  0  0  0  0
    2.1806  -11.4236   18.6724 N   0  0  0  0  0  0  0  0  0  0  0  0
    3.2741   -9.6639   16.8727 C   0  0  0  0  0  0  0  0  0  0  0  0
    5.1531   -9.3984   17.8711 N   0  0  0  0  0  0  0  0  0  0  0  0
    1.3199   -9.5952   15.6076 C   0  0  0  0  0  0  0  0  0  0  0  0
   10.4667   -3.0304   22.6429 C   0  0  0  0  0  0  0  0  0  0  0  0
    8.0711   -6.3485   16.6502 N   0  0  0  0  0  0  0  0  0  0  0  0
    8.3106   -7.0589   15.4343 C   0  0  0  0  0  0  0  0  0  0  0  0
   11.1391   -2.4269   20.3726 C   0  0  0  0  0  0  0  0  0  0  0  0
   10.1375   -1.4988   24.4235 C   0  0  0  0  0  0  0  0  0  0  0  0
    0.0624  -10.0746   15.4364 C   0  0  0  0  0  0  0  0  0  0  0  0
   10.4677   -3.6096   17.0887 C   0  0  0  0  0  0  0  0  0  0  0  0
   10.3428   -1.7187   23.0761 N   0  0  0  0  0  0  0  0  0  0  0  0
    0.1870  -11.4029   17.3346 C   0  0  0  0  0  0  0  0  0  0  0  0
    9.9468   -4.3896   20.6078 C   0  0  0  0  0  0  0  0  0  0  0  0
    6.2537   -7.8563   16.3037 C   0  0  0  0  0  0  0  0  0  0  0  0
   10.5263   -4.0796   23.5477 C   0  0  0  0  0  0  0  0  0  0  0  0
   11.1262   -2.5465   19.0548 N   0  0  0  0  0  0  0  0  0  0  0  0
   10.5251   -3.2847   21.2411 C   0  0  0  0  0  0  0  0  0  0  0  0
    9.1505   -5.4758   18.5410 C   0  0  0  0  0  0  0  0  0  0  0  0
    8.9989   -5.5041   17.1943 C   0  0  0  0  0  0  0  0  0  0  0  0
  1 10  1  0
  1 17  2  0
  1 29  1  0
  2  8  4  0
  2 23  4  0
  3 12  4  0
  3 28  4  0
  3 33  4  0
  4 13  4  0
  4 16  4  0
  4 18  4  0
  5  6  4  0
  5 15  4  0
  6 16  4  0
  6 17  1  0
  7 24  4  0
  7 27  4  0
  8 30  4  0
  9 20  1  0
  9 29  1  0
 10 16  1  0
 11 21  1  0
 11 29  1  0
 12 25  4  0
 12 31  4  0
 13 15  4  0
 13 27  4  0
 14 25  4  0
 14 34  4  0
 18 24  4  0
 19 26  4  0
 19 30  4  0
 19 32  1  0
 20 21  1  0
 20 34  1  0
 22 31  4  0
 22 32  4  0
 23 26  4  0
 28 32  4  0
 33 34  4  0
M  END
$$$$

 Created by Python create_sdf_string function

 34 50  0  0  0  0  0  0  0  0999 V2000
    5.2694   -8.6279   16.6743 C   0  0  0  0  0  0  0  0  0  0  0  0
   10.0457   -2.4670   25.1944 C   0  0  0  0  0  0  0  0  0  0  0  0
    9.8308   -4.4866   19.3078 C   0  0  0  0  0  0  0  0  0  0  0  0
    1.9808  -10.1639   16.7203 C   0  0  0  0  0  0  0  0  0  0  0  0
    3.3234  -10.9032   18.8074 C   0  0  0  0  0  0  0  0  0  0  0  0
    3.8779  -10.0658   17.9768 C   0  0  0  0  0  0  0  0  0  0  0  0
   -0.4340  -10.9887   16.3188 N   0  0  0  0  0  0  0  0  0  0  0  0
   10.4153   -3.9117   24.9099 C   0  0  0  0  0  0  0  0  0  0  0  0
    6.8240   -7.0153   17.2373 C   0  0  0  0  0  0  0  0  0  0  0  0
    4.1283   -8.8710   16.2226 N   0  0  0  0  0  0  0  0  0  0  0  0
    7.2164   -8.1568   15.2130 C   0  0  0  0  0  0  0  0  0  0  0  0
   10.5465   -3.5693   18.4937 C   0  0  0  0  0  0  0  0  0  0  0  0
    1.4947  -11.0370   17.5846 C   0  0  0  0  0  0  0  0  0  0  0  0
    9.7028   -4.6216   16.4632 C   0  0  0  0  0  0  0  0  0  0  0  0
    2.1583  -11.4574   18.5939 N   0  0  0  0  0  0  0  0  0  0  0  0
    3.2817   -9.7249   16.8849 C   0  0  0  0  0  0  0  0  0  0  0  0
    5.2908   -9.3590   17.9583 N   0  0  0  0  0  0  0  0  0  0  0  0
   10.4228   -3.0903   22.6265 C   0  0  0  0  0  0  0  0  0  0  0  0
    8.0229   -6.2811   16.6220 N   0  0  0  0  0  0  0  0  0  0  0  0
    8.3419   -7.0059   15.3394 C   0  0  0  0  0  0  0  0  0  0  0  0
   11.0851   -2.3736   20.2845 C   0  0  0  0  0  0  0  0  0  0  0  0
   10.1308   -1.5012   24.3573 C   0  0  0  0  0  0  0  0  0  0  0  0
    0.1200  -10.1337   15.4441 C   0  0  0  0  0  0  0  0  0  0  0  0
   10.4961   -3.5954   17.0594 C   0  0  0  0  0  0  0  0  0  0  0  0
   10.2908   -1.6755   23.0013 N   0  0  0  0  0  0  0  0  0  0  0  0
    0.1533  -11.4373   17.3576 C   0  0  0  0  0  0  0  0  0  0  0  0
   10.0446   -4.3118   20.5795 C   0  0  0  0  0  0  0  0  0  0  0  0
    6.2502   -7.8553   16.3850 C   0  0  0  0  0  0  0  0  0  0  0  0
   10.5713   -4.1363   23.6308 C   0  0  0  0  0  0  0  0  0  0  0  0
   11.1471   -2.5295   18.9015 N   0  0  0  0  0  0  0  0  0  0  0  0
   10.3789   -3.3245   21.1592 C   0  0  0  0  0  0  0  0  0  0  0  0
    9.1644   -5.3808   18.5596 C   0  0  0  0  0  0  0  0  0  0  0  0
    8.9847   -5.4448   17.0845 C   0  0  0  0  0  0  0  0  0  0  0  0
    1.4190   -9.6727   15.6939 He  0  0  0  0  0  0  0  0  0  0  0  0
  1  9  2  0
  1 10  1  0
  1 17  2  0
  1 28  1  0
  2  8  4  0
  2 22  4  0
  3 12  4  0
  3 19  3  0
  3 27  4  0
  3 32  4  0
  4 13  4  0
  4 16  4  0
  5  6  4  0
  5 15  4  0
  6 10  4  0
  6 16  4  0
  6 17  1  0
  7 23  4  0
  7 26  4  0
  8 29  4  0
  9 10  3  0
  9 19  1  0
  9 24  3  0
  9 25  1  0
  9 28  1  0
 10 14  2  0
 10 16  1  0
 11 13  2  0
 11 20  1  0
 11 28  1  0
 12 24  4  0
 12 30  4  0
 13 15  4  0
 13 26  4  0
 14 24  4  0
 14 33  4  0
 18 25  4  0
 18 29  4  0
 18 31  1  0
 19 20  1  0
 19 21  3  0
 19 33  1  0
 21 25  4  0
 21 29  3  0
 21 30  4  0
 21 31  4  0
 22 25  4  0
 23 32  4  0
 27 31  4  0
 32 33  4  0
M  END
$$$$

 Created by Python create_sdf_string function

 34 40  0  0  0  0  0  0  0  0999 V2000
    5.2496   -8.6810   16.7910 C   0  0  0  0  0  0  0  0  0  0  0  0
   10.1036   -2.5026   25.2833 C   0  0  0  0  0  0  0  0  0  0  0  0
    9.8478   -4.4920   19.1740 C   0  0  0  0  0  0  0  0  0  0  0  0
    2.0122  -10.1417   16.7111 C   0  0  0  0  0  0  0  0  0  0  0  0
    3.3704  -10.9475   18.8214 C   0  0  0  0  0  0  0  0  0  0  0  0
    3.9446  -10.0637   17.9661 C   0  0  0  0  0  0  0  0  0  0  0  0
   -0.4875  -11.0145   16.3129 N   0  0  0  0  0  0  0  0  0  0  0  0
   10.3802   -3.8287   24.8971 C   0  0  0  0  0  0  0  0  0  0  0  0
    6.8758   -6.9751   17.2539 C   0  0  0  0  0  0  0  0  0  0  0  0
    4.1027   -8.8880   16.1702 N   0  0  0  0  0  0  0  0  0  0  0  0
    7.1965   -8.1131   15.2567 C   0  0  0  0  0  0  0  0  0  0  0  0
   10.5163   -3.5324   18.4042 C   0  0  0  0  0  0  0  0  0  0  0  0
    1.4324  -11.0418   17.6110 C   0  0  0  0  0  0  0  0  0  0  0  0
    9.7079   -4.5986   16.4537 C   0  0  0  0  0  0  0  0  0  0  0  0
    2.1630  -11.4456   18.6873 N   0  0  0  0  0  0  0  0  0  0  0  0
    3.2672   -9.7093   16.9103 C   0  0  0  0  0  0  0  0  0  0  0  0
    5.1796   -9.3707   17.8990 N   0  0  0  0  0  0  0  0  0  0  0  0
    1.3513   -9.6799   15.6162 C   0  0  0  0  0  0  0  0  0  0  0  0
   10.4435   -3.0366   22.6054 C   0  0  0  0  0  0  0  0  0  0  0  0
    8.0259   -6.3101   16.6397 N   0  0  0  0  0  0  0  0  0  0  0  0
    8.2668   -7.0153   15.4101 C   0  0  0  0  0  0  0  0  0  0  0  0
   11.1130   -2.3849   20.2987 C   0  0  0  0  0  0  0  0  0  0  0  0
   10.0976   -1.4754   24.3503 C   0  0  0  0  0  0  0  0  0  0  0  0
    0.1051  -10.1423   15.4590 C   0  0  0  0  0  0  0  0  0  0  0  0
   10.4751   -3.6453   17.0296 C   0  0  0  0  0  0  0  0  0  0  0  0
   10.2930   -1.7154   23.0160 N   0  0  0  0  0  0  0  0  0  0  0  0
    0.1657  -11.4633   17.3661 C   0  0  0  0  0  0  0  0  0  0  0  0
    9.9633   -4.3663   20.5685 C   0  0  0  0  0  0  0  0  0  0  0  0
    6.2386   -7.8667   16.3237 C   0  0  0  0  0  0  0  0  0  0  0  0
   10.5299   -4.0828   23.5295 C   0  0  0  0  0  0  0  0  0  0  0  0
   11.1523   -2.5203   18.9753 N   0  0  0  0  0  0  0  0  0  0  0  0
   10.5144   -3.2852   21.1737 C   0  0  0  0  0  0  0  0  0  0  0  0
    9.1071   -5.4336   18.5321 C   0  0  0  0  0  0  0  0  0  0  0  0
    8.9638   -5.4725   17.1992 C   0  0  0  0  0  0  0  0  0  0  0  0
  1 10  1  0
  1 17  2  0
  1 29  1  0
  2  8  4  0
  2 23  4  0
  3 12  4  0
  3 28  4  0
  3 33  4  0
  4 13  4  0
  4 16  4  0
  4 18  4  0
  5  6  4  0
  5 15  4  0
  6 16  4  0
  6 17  1  0
  7 24  4  0
  7 27  4  0
  8 30  4  0
  9 20  1  0
  9 29  1  0
 10 16  1  0
 11 21  1  0
 11 29  1  0
 12 25  4  0
 12 31  4  0
 13 15  4  0
 13 27  4  0
 14 25  4  0
 14 34  4  0
 18 24  4  0
 19 26  4  0
 19 30  4  0
 19 32  1  0
 20 21  1  0
 20 34  1  0
 22 31  4  0
 22 32  4  0
 23 26  4  0
 28 32  4  0
 33 34  4  0
M  END
$$$$

 Created by Python create_sdf_string function

 34 53  0  0  0  0  0  0  0  0999 V2000
    5.4031   -8.7427   16.7563 C   0  0  0  0  0  0  0  0  0  0  0  0
   10.0723   -2.3851   25.2657 C   0  0  0  0  0  0  0  0  0  0  0  0
    9.7957   -4.5011   19.1834 C   0  0  0  0  0  0  0  0  0  0  0  0
    1.9766  -10.1509   16.6888 C   0  0  0  0  0  0  0  0  0  0  0  0
    3.3746  -10.9212   18.8428 C   0  0  0  0  0  0  0  0  0  0  0  0
    3.9587  -10.1272   18.0365 C   0  0  0  0  0  0  0  0  0  0  0  0
   -0.5251  -11.0121   16.2410 N   0  0  0  0  0  0  0  0  0  0  0  0
   10.3803   -3.8474   24.8790 C   0  0  0  0  0  0  0  0  0  0  0  0
    6.9299   -6.9900   17.2528 N   0  0  0  0  0  0  0  0  0  0  0  0
    3.9817   -9.0209   16.2314 N   0  0  0  0  0  0  0  0  0  0  0  0
    7.2425   -8.2065   15.2964 F   0  0  0  0  0  0  0  0  0  0  0  0
   10.4428   -3.5565   18.4302 C   0  0  0  0  0  0  0  0  0  0  0  0
    1.3334  -11.0232   17.6170 C   0  0  0  0  0  0  0  0  0  0  0  0
    9.6435   -4.5714   16.4027 C   0  0  0  0  0  0  0  0  0  0  0  0
    2.0483  -11.4499   18.6566 N   0  0  0  0  0  0  0  0  0  0  0  0
    3.3419   -9.7380   16.7942 C   0  0  0  0  0  0  0  0  0  0  0  0
    5.2168   -9.4100   17.8008 N   0  0  0  0  0  0  0  0  0  0  0  0
    1.4103   -9.6597   15.5708 C   0  0  0  0  0  0  0  0  0  0  0  0
   10.4152   -3.0500   22.5880 C   0  0  0  0  0  0  0  0  0  0  0  0
    8.0631   -6.3374   16.7224 N   0  0  0  0  0  0  0  0  0  0  0  0
    8.2571   -7.0850   15.3758 C   0  0  0  0  0  0  0  0  0  0  0  0
   11.0374   -2.4433   20.3608 C   0  0  0  0  0  0  0  0  0  0  0  0
   10.1159   -1.4363   24.2993 C   0  0  0  0  0  0  0  0  0  0  0  0
    0.1409  -10.1007   15.4109 C   0  0  0  0  0  0  0  0  0  0  0  0
   10.4622   -3.6601   17.0480 C   0  0  0  0  0  0  0  0  0  0  0  0
   10.2671   -1.6622   23.0888 N   0  0  0  0  0  0  0  0  0  0  0  0
    0.1394  -11.4900   17.3477 C   0  0  0  0  0  0  0  0  0  0  0  0
   10.0093   -4.3354   20.6084 C   0  0  0  0  0  0  0  0  0  0  0  0
    6.2929   -7.7696   16.3512 C   0  0  0  0  0  0  0  0  0  0  0  0
   10.5277   -4.0777   23.4861 C   0  0  0  0  0  0  0  0  0  0  0  0
   11.1074   -2.4873   18.8838 N   0  0  0  0  0  0  0  0  0  0  0  0
   10.4650   -3.3194   21.1808 C   0  0  0  0  0  0  0  0  0  0  0  0
    9.1177   -5.4378   18.4800 C   0  0  0  0  0  0  0  0  0  0  0  0
    8.9304   -5.5749   17.1599 C   0  0  0  0  0  0  0  0  0  0  0  0
  1 10  1  0
  1 17  2  0
  1 29  1  0
  1 31  2  0
  2  8  4  0
  2 23  4  0
  3 12  4  0
  3 28  4  0
  3 33  4  0
  4 13  4  0
  4 16  4  0
  4 18  4  0
  5  6  4  0
  5 15  4  0
  6 16  4  0
  6 17  1  0
  7 23  4  0
  7 24  4  0
  7 27  4  0
  7 29  2  0
  8 30  4  0
  9 11  2  0
  9 20  1  0
  9 29  1  0
 10 16  1  0
 10 24  4  0
 11 18  4  0
 11 21  1  0
 11 29  1  0
 12 25  4  0
 12 31  4  0
 13 15  4  0
 13 27  4  0
 14 20  3  0
 14 25  4  0
 14 34  4  0
 15 19  2  0
 18 24  4  0
 18 30  3  0
 19 26  4  0
 19 27  1  0
 19 30  4  0
 19 32  1  0
 20 21  1  0
 20 25  4  0
 20 32  3  0
 20 34  1  0
 22 31  4  0
 22 32  4  0
 23 26  4  0
 25 31  4  0
 28 32  4  0
 33 34  4  0
M  END
$$$$

 Created by Python create_sdf_string function

 34 40  0  0  0  0  0  0  0  0999 V2000
    5.2723   -8.7167   16.7664 C   0  0  0  0  0  0  0  0  0  0  0  0
   10.1120   -2.4514   25.2808 C   0  0  0  0  0  0  0  0  0  0  0  0
    9.8180   -4.5106   19.1701 C   0  0  0  0  0  0  0  0  0  0  0  0
    2.0138  -10.1597   16.7008 C   0  0  0  0  0  0  0  0  0  0  0  0
    3.3450  -10.9618   18.8455 C   0  0  0  0  0  0  0  0  0  0  0  0
    3.9483  -10.1184   17.9667 C   0  0  0  0  0  0  0  0  0  0  0  0
   -0.5077  -11.0168   16.2711 N   0  0  0  0  0  0  0  0  0  0  0  0
   10.3594   -3.7847   24.8847 C   0  0  0  0  0  0  0  0  0  0  0  0
    6.9201   -6.9902   17.2304 C   0  0  0  0  0  0  0  0  0  0  0  0
    4.1145   -8.9627   16.1622 N   0  0  0  0  0  0  0  0  0  0  0  0
    7.2056   -8.1569   15.3239 C   0  0  0  0  0  0  0  0  0  0  0  0
   10.4705   -3.5368   18.3999 C   0  0  0  0  0  0  0  0  0  0  0  0
    1.3992  -11.0380   17.6133 C   0  0  0  0  0  0  0  0  0  0  0  0
    9.6825   -4.5890   16.4428 C   0  0  0  0  0  0  0  0  0  0  0  0
    2.1160  -11.4159   18.7145 N   0  0  0  0  0  0  0  0  0  0  0  0
    3.2778   -9.7580   16.9054 C   0  0  0  0  0  0  0  0  0  0  0  0
    5.1761   -9.4288   17.8267 N   0  0  0  0  0  0  0  0  0  0  0  0
    1.3532   -9.6893   15.5806 C   0  0  0  0  0  0  0  0  0  0  0  0
   10.4312   -3.0056   22.5907 C   0  0  0  0  0  0  0  0  0  0  0  0
    8.0684   -6.4100   16.6167 N   0  0  0  0  0  0  0  0  0  0  0  0
    8.2537   -7.0968   15.3880 C   0  0  0  0  0  0  0  0  0  0  0  0
   11.1009   -2.3807   20.2989 C   0  0  0  0  0  0  0  0  0  0  0  0
   10.0985   -1.4379   24.3341 C   0  0  0  0  0  0  0  0  0  0  0  0
    0.0880  -10.1442   15.4153 C   0  0  0  0  0  0  0  0  0  0  0  0
   10.4290   -3.6230   17.0356 C   0  0  0  0  0  0  0  0  0  0  0  0
   10.2835   -1.6969   22.9996 N   0  0  0  0  0  0  0  0  0  0  0  0
    0.1260  -11.4612   17.3524 C   0  0  0  0  0  0  0  0  0  0  0  0
    9.9544   -4.3667   20.5702 C   0  0  0  0  0  0  0  0  0  0  0  0
    6.2716   -7.8361   16.3525 C   0  0  0  0  0  0  0  0  0  0  0  0
   10.5027   -4.0516   23.5010 C   0  0  0  0  0  0  0  0  0  0  0  0
   11.0995   -2.5269   18.9571 N   0  0  0  0  0  0  0  0  0  0  0  0
   10.5019   -3.2696   21.1713 C   0  0  0  0  0  0  0  0  0  0  0  0
    9.0930   -5.4564   18.5294 C   0  0  0  0  0  0  0  0  0  0  0  0
    8.9530   -5.5073   17.1863 C   0  0  0  0  0  0  0  0  0  0  0  0
  1 10  1  0
  1 17  2  0
  1 29  1  0
  2  8  4  0
  2 23  4  0
  3 12  4  0
  3 28  4  0
  3 33  4  0
  4 13  4  0
  4 16  4  0
  4 18  4  0
  5  6  4  0
  5 15  4  0
  6 16  4  0
  6 17  1  0
  7 24  4  0
  7 27  4  0
  8 30  4  0
  9 20  1  0
  9 29  1  0
 10 16  1  0
 11 21  1  0
 11 29  1  0
 12 25  4  0
 12 31  4  0
 13 15  4  0
 13 27  4  0
 14 25  4  0
 14 34  4  0
 18 24  4  0
 19 26  4  0
 19 30  4  0
 19 32  1  0
 20 21  1  0
 20 34  1  0
 22 31  4  0
 22 32  4  0
 23 26  4  0
 28 32  4  0
 33 34  4  0
M  END
$$$$

 Created by Python create_sdf_string function

 34 42  0  0  0  0  0  0  0  0999 V2000
    5.2602   -8.7007   16.7591 C   0  0  0  0  0  0  0  0  0  0  0  0
   10.0568   -2.4619   25.2556 C   0  0  0  0  0  0  0  0  0  0  0  0
    9.8198   -4.5006   19.1488 C   0  0  0  0  0  0  0  0  0  0  0  0
    1.8616  -10.1547   16.7112 C   0  0  0  0  0  0  0  0  0  0  0  0
    3.3824  -10.9239   18.8418 C   0  0  0  0  0  0  0  0  0  0  0  0
    3.9472  -10.1641   17.9916 C   0  0  0  0  0  0  0  0  0  0  0  0
   -0.5499  -11.0412   16.2568 N   0  0  0  0  0  0  0  0  0  0  0  0
   10.4313   -3.7062   24.8051 C   0  0  0  0  0  0  0  0  0  0  0  0
    7.0032   -7.0475   17.1594 C   0  0  0  0  0  0  0  0  0  0  0  0
    4.1161   -8.9482   16.1655 N   0  0  0  0  0  0  0  0  0  0  0  0
    7.2385   -8.1891   15.3070 C   0  0  0  0  0  0  0  0  0  0  0  0
   10.3893   -3.5333   18.3146 C   0  0  0  0  0  0  0  0  0  0  0  0
    1.3093  -11.0505   17.6344 C   0  0  0  0  0  0  0  0  0  0  0  0
    9.7429   -4.6176   16.3708 C   0  0  0  0  0  0  0  0  0  0  0  0
    2.1836  -11.4713   18.8138 N   0  0  0  0  0  0  0  0  0  0  0  0
    3.2538   -9.7426   16.9222 C   0  0  0  0  0  0  0  0  0  0  0  0
    5.1642   -9.4540   17.8168 N   0  0  0  0  0  0  0  0  0  0  0  0
    1.3679   -9.6501   15.5554 C   0  0  0  0  0  0  0  0  0  0  0  0
   10.5098   -3.0159   22.6429 C   0  0  0  0  0  0  0  0  0  0  0  0
    8.0614   -6.3822   16.6670 N   0  0  0  0  0  0  0  0  0  0  0  0
    8.2809   -7.0815   15.3776 C   0  0  0  0  0  0  0  0  0  0  0  0
   11.0084   -2.3789   20.2094 C   0  0  0  0  0  0  0  0  0  0  0  0
   10.1534   -1.4232   24.3658 O   0  0  0  0  0  0  0  0  0  0  0  0
    0.1406  -10.1811   15.3148 C   0  0  0  0  0  0  0  0  0  0  0  0
   10.3410   -3.6801   17.1054 C   0  0  0  0  0  0  0  0  0  0  0  0
   10.2334   -1.6494   23.0564 N   0  0  0  0  0  0  0  0  0  0  0  0
    0.0957  -11.5498   17.2882 C   0  0  0  0  0  0  0  0  0  0  0  0
    9.9557   -4.2672   20.6354 C   0  0  0  0  0  0  0  0  0  0  0  0
    6.3412   -7.8414   16.3936 C   0  0  0  0  0  0  0  0  0  0  0  0
   10.5262   -4.1105   23.4962 C   0  0  0  0  0  0  0  0  0  0  0  0
   11.0482   -2.4983   18.9696 N   0  0  0  0  0  0  0  0  0  0  0  0
   10.5555   -3.2700   21.2328 C   0  0  0  0  0  0  0  0  0  0  0  0
    9.1283   -5.4381   18.5887 C   0  0  0  0  0  0  0  0  0  0  0  0
    8.8725   -5.5028   17.1395 C   0  0  0  0  0  0  0  0  0  0  0  0
  1 10  1  0
  1 17  2  0
  1 29  1  0
  2  8  4  0
  2 23  4  0
  3 28  4  0
  3 33  4  0
  4 13  4  0
  4 16  4  0
  4 18  4  0
  5  6  4  0
  5 15  4  0
  6  9  4  0
  6 16  4  0
  6 17  1  0
  7 24  4  0
  7 27  4  0
  8 19  1  0
  8 30  4  0
  9 20  1  0
  9 29  1  0
 10 16  1  0
 10 20  4  0
 11 21  1  0
 11 29  1  0
 12 31  4  0
 13 15  4  0
 13 27  4  0
 14 25  4  0
 14 34  4  0
 18 24  4  0
 19 26  4  0
 19 30  4  0
 19 32  1  0
 20 21  1  0
 20 34  1  0
 22 25  4  0
 22 31  4  0
 22 32  4  0
 23 26  4  0
 28 32  4  0
 33 34  4  0
M  END
$$$$

 Created by Python create_sdf_string function

 34 40  0  0  0  0  0  0  0  0999 V2000
    5.2460   -8.7423   16.7926 C   0  0  0  0  0  0  0  0  0  0  0  0
   10.1129   -2.4625   25.2553 C   0  0  0  0  0  0  0  0  0  0  0  0
    9.8038   -4.4810   19.1785 C   0  0  0  0  0  0  0  0  0  0  0  0
    1.9734  -10.1688   16.7198 C   0  0  0  0  0  0  0  0  0  0  0  0
    3.3648  -10.9602   18.8440 C   0  0  0  0  0  0  0  0  0  0  0  0
    3.9301  -10.1108   17.9632 C   0  0  0  0  0  0  0  0  0  0  0  0
   -0.5107  -11.0673   16.2406 N   0  0  0  0  0  0  0  0  0  0  0  0
   10.3989   -3.7480   24.8399 C   0  0  0  0  0  0  0  0  0  0  0  0
    6.9487   -7.0078   17.2887 C   0  0  0  0  0  0  0  0  0  0  0  0
    4.0875   -8.9288   16.1795 N   0  0  0  0  0  0  0  0  0  0  0  0
    7.1960   -8.1816   15.3216 C   0  0  0  0  0  0  0  0  0  0  0  0
   10.4339   -3.5184   18.3778 C   0  0  0  0  0  0  0  0  0  0  0  0
    1.3928  -11.0595   17.6326 C   0  0  0  0  0  0  0  0  0  0  0  0
    9.6681   -4.6311   16.4173 C   0  0  0  0  0  0  0  0  0  0  0  0
    2.1254  -11.4284   18.7362 N   0  0  0  0  0  0  0  0  0  0  0  0
    3.2435   -9.7523   16.9352 C   0  0  0  0  0  0  0  0  0  0  0  0
    5.1665   -9.4605   17.8487 N   0  0  0  0  0  0  0  0  0  0  0  0
    1.3231   -9.7007   15.5834 C   0  0  0  0  0  0  0  0  0  0  0  0
   10.4503   -2.9909   22.6029 C   0  0  0  0  0  0  0  0  0  0  0  0
    8.0803   -6.4225   16.6410 N   0  0  0  0  0  0  0  0  0  0  0  0
    8.2570   -7.0863   15.3989 C   0  0  0  0  0  0  0  0  0  0  0  0
   11.0808   -2.3566   20.2494 C   0  0  0  0  0  0  0  0  0  0  0  0
   10.1211   -1.4230   24.3538 C   0  0  0  0  0  0  0  0  0  0  0  0
    0.0794  -10.2026   15.3740 C   0  0  0  0  0  0  0  0  0  0  0  0
   10.3829   -3.6457   17.0170 C   0  0  0  0  0  0  0  0  0  0  0  0
   10.2853   -1.6695   23.0290 N   0  0  0  0  0  0  0  0  0  0  0  0
    0.1194  -11.5037   17.3364 C   0  0  0  0  0  0  0  0  0  0  0  0
    9.9580   -4.3470   20.5784 C   0  0  0  0  0  0  0  0  0  0  0  0
    6.2757   -7.8962   16.3974 C   0  0  0  0  0  0  0  0  0  0  0  0
   10.5365   -4.0494   23.5019 C   0  0  0  0  0  0  0  0  0  0  0  0
   11.0555   -2.5018   18.9421 N   0  0  0  0  0  0  0  0  0  0  0  0
   10.5116   -3.2398   21.1783 C   0  0  0  0  0  0  0  0  0  0  0  0
    9.0833   -5.4435   18.5475 C   0  0  0  0  0  0  0  0  0  0  0  0
    8.9387   -5.5287   17.1877 C   0  0  0  0  0  0  0  0  0  0  0  0
  1 10  1  0
  1 17  2  0
  1 29  1  0
  2  8  4  0
  2 23  4  0
  3 12  4  0
  3 28  4  0
  3 33  4  0
  4 13  4  0
  4 16  4  0
  4 18  4  0
  5  6  4  0
  5 15  4  0
  6 16  4  0
  6 17  1  0
  7 24  4  0
  7 27  4  0
  8 30  4  0
  9 20  1  0
  9 29  1  0
 10 16  1  0
 11 21  1  0
 11 29  1  0
 12 25  4  0
 12 31  4  0
 13 15  4  0
 13 27  4  0
 14 25  4  0
 14 34  4  0
 18 24  4  0
 19 26  4  0
 19 30  4  0
 19 32  1  0
 20 21  1  0
 20 34  1  0
 22 31  4  0
 22 32  4  0
 23 26  4  0
 28 32  4  0
 33 34  4  0
M  END
$$$$

 Created by Python create_sdf_string function

 34 48  0  0  0  0  0  0  0  0999 V2000
    5.2441   -8.7393   16.8266 C   0  0  0  0  0  0  0  0  0  0  0  0
   10.1020   -2.4925   25.2301 C   0  0  0  0  0  0  0  0  0  0  0  0
    9.7575   -4.4428   19.0937 C   0  0  0  0  0  0  0  0  0  0  0  0
    1.8691  -10.1417   16.8292 C   0  0  0  0  0  0  0  0  0  0  0  0
    3.3845  -11.0206   18.8884 C   0  0  0  0  0  0  0  0  0  0  0  0
    3.9752  -10.0802   17.9859 C   0  0  0  0  0  0  0  0  0  0  0  0
   -0.4660  -11.0638   16.2379 N   0  0  0  0  0  0  0  0  0  0  0  0
   10.4105   -3.7399   24.8756 C   0  0  0  0  0  0  0  0  0  0  0  0
    7.0206   -7.0835   17.2834 C   0  0  0  0  0  0  0  0  0  0  0  0
    4.1449   -8.8192   16.2466 N   0  0  0  0  0  0  0  0  0  0  0  0
    7.1458   -8.2243   15.3188 C   0  0  0  0  0  0  0  0  0  0  0  0
   10.4918   -3.5028   18.3398 C   0  0  0  0  0  0  0  0  0  0  0  0
    1.3628  -11.0858   17.5396 C   0  0  0  0  0  0  0  0  0  0  0  0
    9.7787   -4.6713   16.4257 C   0  0  0  0  0  0  0  0  0  0  0  0
    2.0801  -11.4193   18.7830 N   0  0  0  0  0  0  0  0  0  0  0  0
    3.2792   -9.7808   16.9277 C   0  0  0  0  0  0  0  0  0  0  0  0
    5.1497   -9.4339   17.8262 N   0  0  0  0  0  0  0  0  0  0  0  0
    1.3333   -9.6560   15.5503 C   0  0  0  0  0  0  0  0  0  0  0  0
   10.4710   -2.9839   22.6878 C   0  0  0  0  0  0  0  0  0  0  0  0
    8.0277   -6.3220   16.6466 N   0  0  0  0  0  0  0  0  0  0  0  0
    8.1476   -7.0295   15.4319 C   0  0  0  0  0  0  0  0  0  0  0  0
   11.0947   -2.3457   20.2616 C   0  0  0  0  0  0  0  0  0  0  0  0
   10.1136   -1.3687   24.3967 C   0  0  0  0  0  0  0  0  0  0  0  0
    0.0485  -10.2236   15.3887 C   0  0  0  0  0  0  0  0  0  0  0  0
   10.3906   -3.7039   16.9958 C   0  0  0  0  0  0  0  0  0  0  0  0
   10.2441   -1.6616   23.0228 F   0  0  0  0  0  0  0  0  0  0  0  0
    0.1393  -11.5208   17.3881 C   0  0  0  0  0  0  0  0  0  0  0  0
    9.9862   -4.3873   20.6434 C   0  0  0  0  0  0  0  0  0  0  0  0
   10.6312   -4.0536   23.5607 C   0  0  0  0  0  0  0  0  0  0  0  0
   11.0623   -2.5322   18.9429 C   0  0  0  0  0  0  0  0  0  0  0  0
   10.5605   -3.2938   21.2596 C   0  0  0  0  0  0  0  0  0  0  0  0
    9.0705   -5.4341   18.4673 C   0  0  0  0  0  0  0  0  0  0  0  0
    8.9512   -5.5327   17.2392 C   0  0  0  0  0  0  0  0  0  0  0  0
    6.2780   -7.9449   16.3736 He  0  0  0  0  0  0  0  0  0  0  0  0
  1  5  3  0
  1 10  1  0
  1 17  2  0
  1 30  3  0
  2  8  4  0
  2 23  4  0
  3 10  3  0
  3 12  4  0
  3 28  4  0
  3 32  4  0
  4 13  4  0
  4 16  4  0
  4 18  4  0
  4 20  1  0
  4 26  1  0
  5  6  4  0
  5 10  3  0
  5 15  4  0
  6 16  4  0
  6 17  1  0
  7 24  4  0
  7 27  4  0
  8 10  2  0
  8 29  4  0
  9 20  1  0
  9 25  1  0
  9 33  4  0
 10 16  1  0
 11 21  1  0
 12 25  4  0
 12 30  4  0
 13 15  4  0
 13 27  4  0
 14 20  2  0
 14 25  4  0
 14 33  4  0
 16 20  2  0
 18 24  4  0
 18 31  1  0
 19 26  4  0
 19 29  4  0
 19 31  1  0
 20 21  1  0
 20 33  1  0
 22 30  4  0
 22 31  4  0
 23 26  4  0
 28 31  4  0
M  END
$$$$

 Created by Python create_sdf_string function

 34 40  0  0  0  0  0  0  0  0999 V2000
    5.2305   -8.7392   16.8416 C   0  0  0  0  0  0  0  0  0  0  0  0
   10.1254   -2.4469   25.2842 C   0  0  0  0  0  0  0  0  0  0  0  0
    9.8198   -4.4746   19.1554 C   0  0  0  0  0  0  0  0  0  0  0  0
    1.9839  -10.1563   16.7214 C   0  0  0  0  0  0  0  0  0  0  0  0
    3.3685  -10.9757   18.8484 C   0  0  0  0  0  0  0  0  0  0  0  0
    3.9246  -10.1109   17.9759 C   0  0  0  0  0  0  0  0  0  0  0  0
   -0.5076  -11.1057   16.2757 N   0  0  0  0  0  0  0  0  0  0  0  0
   10.4115   -3.7450   24.8854 C   0  0  0  0  0  0  0  0  0  0  0  0
    6.9538   -7.0871   17.3622 C   0  0  0  0  0  0  0  0  0  0  0  0
    4.0937   -8.8748   16.2177 N   0  0  0  0  0  0  0  0  0  0  0  0
    7.1178   -8.1767   15.3323 C   0  0  0  0  0  0  0  0  0  0  0  0
   10.4807   -3.5163   18.3551 C   0  0  0  0  0  0  0  0  0  0  0  0
    1.3953  -11.0509   17.6383 C   0  0  0  0  0  0  0  0  0  0  0  0
    9.7040   -4.6722   16.4296 C   0  0  0  0  0  0  0  0  0  0  0  0
    2.1307  -11.4338   18.7335 N   0  0  0  0  0  0  0  0  0  0  0  0
    3.2460   -9.7237   16.9444 C   0  0  0  0  0  0  0  0  0  0  0  0
    5.1510   -9.4645   17.8769 N   0  0  0  0  0  0  0  0  0  0  0  0
    1.3035   -9.7052   15.6097 C   0  0  0  0  0  0  0  0  0  0  0  0
   10.4712   -2.9782   22.6116 C   0  0  0  0  0  0  0  0  0  0  0  0
    8.0329   -6.4012   16.6548 N   0  0  0  0  0  0  0  0  0  0  0  0
    8.1496   -7.0671   15.3913 C   0  0  0  0  0  0  0  0  0  0  0  0
   11.1452   -2.3301   20.2788 C   0  0  0  0  0  0  0  0  0  0  0  0
   10.0879   -1.3888   24.3822 C   0  0  0  0  0  0  0  0  0  0  0  0
    0.0503  -10.2173   15.4094 C   0  0  0  0  0  0  0  0  0  0  0  0
   10.4341   -3.6829   17.0009 C   0  0  0  0  0  0  0  0  0  0  0  0
   10.2757   -1.6615   23.0283 C   0  0  0  0  0  0  0  0  0  0  0  0
    0.1285  -11.5068   17.3670 C   0  0  0  0  0  0  0  0  0  0  0  0
    9.9638   -4.3415   20.5656 C   0  0  0  0  0  0  0  0  0  0  0  0
    6.2626   -7.9357   16.4509 C   0  0  0  0  0  0  0  0  0  0  0  0
   10.5901   -4.0188   23.5321 C   0  0  0  0  0  0  0  0  0  0  0  0
   11.1079   -2.4925   18.9403 C   0  0  0  0  0  0  0  0  0  0  0  0
   10.5397   -3.2382   21.1896 C   0  0  0  0  0  0  0  0  0  0  0  0
    9.0746   -5.4137   18.5279 C   0  0  0  0  0  0  0  0  0  0  0  0
    8.9432   -5.5240   17.1903 C   0  0  0  0  0  0  0  0  0  0  0  0
  1 10  1  0
  1 17  2  0
  1 29  1  0
  2  8  4  0
  2 23  4  0
  3 12  4  0
  3 28  4  0
  3 33  4  0
  4 13  4  0
  4 16  4  0
  4 18  4  0
  5  6  4  0
  5 15  4  0
  6 16  4  0
  6 17  1  0
  7 24  4  0
  7 27  4  0
  8 30  4  0
  9 20  1  0
  9 29  1  0
 10 16  1  0
 11 21  1  0
 11 29  1  0
 12 25  4  0
 12 31  4  0
 13 15  4  0
 13 27  4  0
 14 25  4  0
 14 34  4  0
 18 24  4  0
 19 26  4  0
 19 30  4  0
 19 32  1  0
 20 21  1  0
 20 34  1  0
 22 31  4  0
 22 32  4  0
 23 26  4  0
 28 32  4  0
 33 34  4  0
M  END
$$$$

 Created by Python create_sdf_string function

 34 45  0  0  0  0  0  0  0  0999 V2000
    5.2015   -8.7474   16.8517 C   0  0  0  0  0  0  0  0  0  0  0  0
   10.0893   -2.5403   25.2240 C   0  0  0  0  0  0  0  0  0  0  0  0
    9.7486   -4.4237   19.1253 C   0  0  0  0  0  0  0  0  0  0  0  0
    1.9807  -10.1141   16.7301 C   0  0  0  0  0  0  0  0  0  0  0  0
    3.3707  -10.9501   18.9159 C   0  0  0  0  0  0  0  0  0  0  0  0
    3.9753  -10.0771   18.0567 C   0  0  0  0  0  0  0  0  0  0  0  0
   -0.5180  -11.1195   16.2387 F   0  0  0  0  0  0  0  0  0  0  0  0
   10.4147   -3.7510   24.9061 C   0  0  0  0  0  0  0  0  0  0  0  0
    6.9938   -7.0628   17.2734 C   0  0  0  0  0  0  0  0  0  0  0  0
    4.0159   -8.8323   16.2266 N   0  0  0  0  0  0  0  0  0  0  0  0
   10.5012   -3.4086   18.4656 C   0  0  0  0  0  0  0  0  0  0  0  0
    1.3794  -11.0171   17.6598 C   0  0  0  0  0  0  0  0  0  0  0  0
    9.6594   -4.6154   16.4544 C   0  0  0  0  0  0  0  0  0  0  0  0
    2.1296  -11.4106   18.8496 N   0  0  0  0  0  0  0  0  0  0  0  0
    3.2675   -9.6091   16.9669 C   0  0  0  0  0  0  0  0  0  0  0  0
    5.0365   -9.4781   17.9059 N   0  0  0  0  0  0  0  0  0  0  0  0
    1.3645   -9.7323   15.5786 C   0  0  0  0  0  0  0  0  0  0  0  0
   10.4574   -2.9346   22.6128 C   0  0  0  0  0  0  0  0  0  0  0  0
    8.1253   -7.1383   15.4279 C   0  0  0  0  0  0  0  0  0  0  0  0
   11.2031   -2.3498   20.3009 C   0  0  0  0  0  0  0  0  0  0  0  0
   10.0993   -1.3281   24.3246 C   0  0  0  0  0  0  0  0  0  0  0  0
    0.0315  -10.2564   15.4714 C   0  0  0  0  0  0  0  0  0  0  0  0
   10.4469   -3.7000   16.9145 C   0  0  0  0  0  0  0  0  0  0  0  0
   10.2369   -1.6989   22.9289 C   0  0  0  0  0  0  0  0  0  0  0  0
    0.1599  -11.4869   17.2935 C   0  0  0  0  0  0  0  0  0  0  0  0
    9.9628   -4.3247   20.5814 C   0  0  0  0  0  0  0  0  0  0  0  0
    6.2330   -7.9612   16.4668 C   0  0  0  0  0  0  0  0  0  0  0  0
   10.6490   -4.0618   23.5532 C   0  0  0  0  0  0  0  0  0  0  0  0
   11.0673   -2.5574   18.9337 C   0  0  0  0  0  0  0  0  0  0  0  0
   10.5117   -3.2527   21.1828 C   0  0  0  0  0  0  0  0  0  0  0  0
    9.0083   -5.5303   18.5013 C   0  0  0  0  0  0  0  0  0  0  0  0
    8.9023   -5.5080   17.2263 F   0  0  0  0  0  0  0  0  0  0  0  0
    7.0432   -8.1335   15.3099 He  0  0  0  0  0  0  0  0  0  0  0  0
    8.0034   -6.4077   16.6876 He  0  0  0  0  0  0  0  0  0  0  0  0
  1 10  3  0
  1 16  2  0
  1 27  1  0
  2  8  4  0
  2 21  4  0
  2 29  1  0
  3 11  4  0
  3 14  4  0
  3 15  1  0
  3 26  4  0
  3 31  4  0
  4 12  4  0
  4 15  4  0
  4 17  4  0
  5  6  4  0
  5 14  4  0
  6 15  4  0
  6 16  1  0
  7 22  4  0
  7 25  4  0
  7 32  2  0
  8 28  4  0
  9 27  1  0
 10 15  1  0
 10 30  2  0
 11 23  4  0
 11 29  4  0
 12 14  4  0
 12 17  4  0
 12 25  4  0
 13 15  4  0
 13 23  4  0
 13 32  4  0
 14 20  3  0
 15 26  1  0
 17 22  4  0
 18 24  4  0
 18 28  4  0
 18 30  1  0
 20 29  4  0
 20 30  4  0
 21 24  4  0
 22 32  2  0
 26 30  4  0
 31 32  4  0
M  END
$$$$

 Created by Python create_sdf_string function

 34 40  0  0  0  0  0  0  0  0999 V2000
    5.1720   -8.7364   16.8694 C   0  0  0  0  0  0  0  0  0  0  0  0
   10.1183   -2.4433   25.2706 C   0  0  0  0  0  0  0  0  0  0  0  0
    9.7916   -4.4745   19.1530 C   0  0  0  0  0  0  0  0  0  0  0  0
    1.9903  -10.1286   16.7453 C   0  0  0  0  0  0  0  0  0  0  0  0
    3.3489  -10.9358   18.9074 C   0  0  0  0  0  0  0  0  0  0  0  0
    3.8892  -10.0799   18.0206 C   0  0  0  0  0  0  0  0  0  0  0  0
   -0.5073  -11.1261   16.2725 N   0  0  0  0  0  0  0  0  0  0  0  0
   10.4170   -3.7392   24.8534 C   0  0  0  0  0  0  0  0  0  0  0  0
    6.9399   -7.0696   17.3645 C   0  0  0  0  0  0  0  0  0  0  0  0
    4.0351   -8.8503   16.2355 N   0  0  0  0  0  0  0  0  0  0  0  0
    7.0044   -8.1069   15.3493 C   0  0  0  0  0  0  0  0  0  0  0  0
   10.4747   -3.5204   18.3660 C   0  0  0  0  0  0  0  0  0  0  0  0
    1.4053  -11.0342   17.6669 C   0  0  0  0  0  0  0  0  0  0  0  0
    9.6321   -4.6639   16.4368 C   0  0  0  0  0  0  0  0  0  0  0  0
    2.1183  -11.4098   18.7826 N   0  0  0  0  0  0  0  0  0  0  0  0
    3.2243   -9.6881   16.9681 C   0  0  0  0  0  0  0  0  0  0  0  0
    5.0989   -9.4583   17.9333 N   0  0  0  0  0  0  0  0  0  0  0  0
    1.2954   -9.7303   15.6176 C   0  0  0  0  0  0  0  0  0  0  0  0
   10.4643   -2.9756   22.5694 C   0  0  0  0  0  0  0  0  0  0  0  0
    8.0281   -6.4251   16.6576 N   0  0  0  0  0  0  0  0  0  0  0  0
    8.1314   -7.1255   15.4019 C   0  0  0  0  0  0  0  0  0  0  0  0
   11.1968   -2.3303   20.2788 C   0  0  0  0  0  0  0  0  0  0  0  0
   10.0572   -1.3808   24.3638 C   0  0  0  0  0  0  0  0  0  0  0  0
    0.0636  -10.2400   15.4029 C   0  0  0  0  0  0  0  0  0  0  0  0
   10.3985   -3.6725   16.9894 C   0  0  0  0  0  0  0  0  0  0  0  0
   10.2662   -1.6482   22.9896 C   0  0  0  0  0  0  0  0  0  0  0  0
    0.1556  -11.5008   17.3793 C   0  0  0  0  0  0  0  0  0  0  0  0
    9.9236   -4.3127   20.5404 C   0  0  0  0  0  0  0  0  0  0  0  0
    6.2207   -7.9481   16.5126 C   0  0  0  0  0  0  0  0  0  0  0  0
   10.5846   -4.0121   23.4883 C   0  0  0  0  0  0  0  0  0  0  0  0
   11.1438   -2.4952   18.9292 C   0  0  0  0  0  0  0  0  0  0  0  0
   10.5453   -3.2376   21.1442 C   0  0  0  0  0  0  0  0  0  0  0  0
    9.0364   -5.4386   18.5405 C   0  0  0  0  0  0  0  0  0  0  0  0
    8.9002   -5.5386   17.1913 C   0  0  0  0  0  0  0  0  0  0  0  0
  1 10  1  0
  1 17  2  0
  1 29  1  0
  2  8  4  0
  2 23  4  0
  3 12  4  0
  3 28  4  0
  3 33  4  0
  4 13  4  0
  4 16  4  0
  4 18  4  0
  5  6  4  0
  5 15  4  0
  6 16  4  0
  6 17  1  0
  7 24  4  0
  7 27  4  0
  8 30  4  0
  9 20  1  0
  9 29  1  0
 10 16  1  0
 11 21  1  0
 11 29  1  0
 12 25  4  0
 12 31  4  0
 13 15  4  0
 13 27  4  0
 14 25  4  0
 14 34  4  0
 18 24  4  0
 19 26  4  0
 19 30  4  0
 19 32  1  0
 20 21  1  0
 20 34  1  0
 22 31  4  0
 22 32  4  0
 23 26  4  0
 28 32  4  0
 33 34  4  0
M  END
$$$$

 Created by Python create_sdf_string function

 34 55  0  0  0  0  0  0  0  0999 V2000
    5.1292   -8.7047   16.8169 C   0  0  0  0  0  0  0  0  0  0  0  0
   10.1163   -2.4695   25.2774 C   0  0  0  0  0  0  0  0  0  0  0  0
    9.8162   -4.4430   19.1625 C   0  0  0  0  0  0  0  0  0  0  0  0
    1.9752  -10.1905   16.6852 C   0  0  0  0  0  0  0  0  0  0  0  0
    3.2850  -11.0398   18.8899 C   0  0  0  0  0  0  0  0  0  0  0  0
    3.9005  -10.1111   18.0546 C   0  0  0  0  0  0  0  0  0  0  0  0
   -0.4844  -11.1173   16.2774 N   0  0  0  0  0  0  0  0  0  0  0  0
   10.4524   -3.7564   24.8174 C   0  0  0  0  0  0  0  0  0  0  0  0
    6.8361   -7.0179   17.3417 C   0  0  0  0  0  0  0  0  0  0  0  0
    4.0851   -8.8615   16.2418 N   0  0  0  0  0  0  0  0  0  0  0  0
    7.0068   -8.1293   15.2755 C   0  0  0  0  0  0  0  0  0  0  0  0
   10.4730   -3.5495   18.3915 C   0  0  0  0  0  0  0  0  0  0  0  0
    1.4108  -10.9906   17.6313 C   0  0  0  0  0  0  0  0  0  0  0  0
    9.6417   -4.6694   16.4320 C   0  0  0  0  0  0  0  0  0  0  0  0
    2.1442  -11.4430   18.7523 Cl  0  0  0  0  0  0  0  0  0  0  0  0
    3.2580   -9.7369   16.9945 C   0  0  0  0  0  0  0  0  0  0  0  0
    5.1086   -9.4678   17.8724 N   0  0  0  0  0  0  0  0  0  0  0  0
    1.2931   -9.6977   15.6573 C   0  0  0  0  0  0  0  0  0  0  0  0
   10.3983   -2.9511   22.5786 C   0  0  0  0  0  0  0  0  0  0  0  0
    8.0755   -6.4213   16.7113 N   0  0  0  0  0  0  0  0  0  0  0  0
    8.1440   -7.0754   15.4492 C   0  0  0  0  0  0  0  0  0  0  0  0
   11.2197   -2.2973   20.3118 C   0  0  0  0  0  0  0  0  0  0  0  0
   10.0081   -1.4291   24.3491 C   0  0  0  0  0  0  0  0  0  0  0  0
    0.0460  -10.2656   15.4080 C   0  0  0  0  0  0  0  0  0  0  0  0
   10.3403   -3.7258   16.9447 C   0  0  0  0  0  0  0  0  0  0  0  0
   10.2613   -1.6766   22.9946 C   0  0  0  0  0  0  0  0  0  0  0  0
    0.1846  -11.4849   17.3692 C   0  0  0  0  0  0  0  0  0  0  0  0
   10.0115   -4.3537   20.4794 C   0  0  0  0  0  0  0  0  0  0  0  0
    6.1860   -7.8819   16.4944 C   0  0  0  0  0  0  0  0  0  0  0  0
   10.5333   -3.9974   23.5102 C   0  0  0  0  0  0  0  0  0  0  0  0
   11.2019   -2.4933   19.0023 C   0  0  0  0  0  0  0  0  0  0  0  0
   10.5308   -3.2228   21.2268 O   0  0  0  0  0  0  0  0  0  0  0  0
    9.0303   -5.4322   18.5118 C   0  0  0  0  0  0  0  0  0  0  0  0
    8.8536   -5.5125   17.1899 C   0  0  0  0  0  0  0  0  0  0  0  0
  1  5  4  0
  1 10  1  0
  1 17  2  0
  1 27  2  0
  1 29  1  0
  2  8  4  0
  2 14  1  0
  2 23  4  0
  3 12  4  0
  3 28  4  0
  3 33  4  0
  4 13  4  0
  4 16  4  0
  4 18  4  0
  4 23  4  0
  5  6  4  0
  5  7  1  0
  5 15  4  0
  5 25  2  0
  5 31  1  0
  6 16  4  0
  7 24  4  0
  7 27  4  0
  8 16  3  0
  9 20  1  0
  9 29  1  0
 10 16  1  0
 10 34  2  0
 11 20  3  0
 11 21  1  0
 11 29  1  0
 12 24  1  0
 12 25  4  0
 12 31  4  0
 12 33  4  0
 13 15  4  0
 13 27  4  0
 14 25  4  0
 14 34  4  0
 15 28  3  0
 18 24  4  0
 19 22  4  0
 19 26  4  0
 19 28  1  0
 19 30  4  0
 19 32  1  0
 20 21  1  0
 20 34  1  0
 21 27  1  0
 22 31  4  0
 22 32  4  0
 23 26  4  0
 27 30  4  0
 28 32  4  0
 33 34  4  0
M  END
$$$$

 Created by Python create_sdf_string function

 34 40  0  0  0  0  0  0  0  0999 V2000
    5.1775   -8.7270   16.8899 C   0  0  0  0  0  0  0  0  0  0  0  0
   10.1239   -2.4527   25.2729 C   0  0  0  0  0  0  0  0  0  0  0  0
    9.8130   -4.4694   19.1606 C   0  0  0  0  0  0  0  0  0  0  0  0
    1.9795  -10.1550   16.7453 C   0  0  0  0  0  0  0  0  0  0  0  0
    3.3448  -10.9955   18.8992 C   0  0  0  0  0  0  0  0  0  0  0  0
    3.8841  -10.1299   18.0144 C   0  0  0  0  0  0  0  0  0  0  0  0
   -0.4998  -11.1165   16.2850 N   0  0  0  0  0  0  0  0  0  0  0  0
   10.4155   -3.7367   24.8458 C   0  0  0  0  0  0  0  0  0  0  0  0
    6.8516   -7.0131   17.3825 C   0  0  0  0  0  0  0  0  0  0  0  0
    4.0434   -8.8840   16.2365 N   0  0  0  0  0  0  0  0  0  0  0  0
    6.9927   -8.0953   15.3217 C   0  0  0  0  0  0  0  0  0  0  0  0
   10.4873   -3.5296   18.3653 C   0  0  0  0  0  0  0  0  0  0  0  0
    1.3926  -11.0576   17.6460 C   0  0  0  0  0  0  0  0  0  0  0  0
    9.6090   -4.6732   16.4394 C   0  0  0  0  0  0  0  0  0  0  0  0
    2.1094  -11.4562   18.7487 N   0  0  0  0  0  0  0  0  0  0  0  0
    3.2228   -9.7293   16.9610 C   0  0  0  0  0  0  0  0  0  0  0  0
    5.1045   -9.4582   17.9359 N   0  0  0  0  0  0  0  0  0  0  0  0
    1.2906   -9.7340   15.6252 C   0  0  0  0  0  0  0  0  0  0  0  0
   10.4432   -2.9613   22.5704 C   0  0  0  0  0  0  0  0  0  0  0  0
    8.0095   -6.4459   16.7181 N   0  0  0  0  0  0  0  0  0  0  0  0
    8.1176   -7.0861   15.4487 C   0  0  0  0  0  0  0  0  0  0  0  0
   11.2079   -2.3200   20.2823 C   0  0  0  0  0  0  0  0  0  0  0  0
   10.0210   -1.4049   24.3730 C   0  0  0  0  0  0  0  0  0  0  0  0
    0.0611  -10.2462   15.4215 C   0  0  0  0  0  0  0  0  0  0  0  0
   10.3797   -3.6904   17.0071 C   0  0  0  0  0  0  0  0  0  0  0  0
   10.2393   -1.6468   23.0047 C   0  0  0  0  0  0  0  0  0  0  0  0
    0.1495  -11.4915   17.3634 C   0  0  0  0  0  0  0  0  0  0  0  0
    9.9712   -4.2976   20.5547 C   0  0  0  0  0  0  0  0  0  0  0  0
    6.1755   -7.8933   16.4965 C   0  0  0  0  0  0  0  0  0  0  0  0
   10.5421   -3.9947   23.4699 C   0  0  0  0  0  0  0  0  0  0  0  0
   11.1679   -2.5265   18.9496 C   0  0  0  0  0  0  0  0  0  0  0  0
   10.5445   -3.2097   21.1667 C   0  0  0  0  0  0  0  0  0  0  0  0
    9.0443   -5.4182   18.5397 C   0  0  0  0  0  0  0  0  0  0  0  0
    8.8805   -5.5471   17.2126 C   0  0  0  0  0  0  0  0  0  0  0  0
  1 10  1  0
  1 17  2  0
  1 29  1  0
  2  8  4  0
  2 23  4  0
  3 12  4  0
  3 28  4  0
  3 33  4  0
  4 13  4  0
  4 16  4  0
  4 18  4  0
  5  6  4  0
  5 15  4  0
  6 16  4  0
  6 17  1  0
  7 24  4  0
  7 27  4  0
  8 30  4  0
  9 20  1  0
  9 29  1  0
 10 16  1  0
 11 21  1  0
 11 29  1  0
 12 25  4  0
 12 31  4  0
 13 15  4  0
 13 27  4  0
 14 25  4  0
 14 34  4  0
 18 24  4  0
 19 26  4  0
 19 30  4  0
 19 32  1  0
 20 21  1  0
 20 34  1  0
 22 31  4  0
 22 32  4  0
 23 26  4  0
 28 32  4  0
 33 34  4  0
M  END
$$$$

 Created by Python create_sdf_string function

 34 42  0  0  0  0  0  0  0  0999 V2000
    5.2113   -8.6924   16.9141 C   0  0  0  0  0  0  0  0  0  0  0  0
   10.1572   -2.4908   25.2778 C   0  0  0  0  0  0  0  0  0  0  0  0
    9.7875   -4.4446   19.2098 C   0  0  0  0  0  0  0  0  0  0  0  0
    1.9734  -10.1503   16.7258 C   0  0  0  0  0  0  0  0  0  0  0  0
    3.2670  -10.9616   18.8381 C   0  0  0  0  0  0  0  0  0  0  0  0
    3.8428  -10.1207   18.0498 C   0  0  0  0  0  0  0  0  0  0  0  0
   -0.4848  -11.0765   16.2827 N   0  0  0  0  0  0  0  0  0  0  0  0
   10.3591   -3.7808   24.8789 C   0  0  0  0  0  0  0  0  0  0  0  0
    6.8227   -6.9465   17.3686 C   0  0  0  0  0  0  0  0  0  0  0  0
    4.0466   -8.8913   16.2585 N   0  0  0  0  0  0  0  0  0  0  0  0
    6.9274   -8.0943   15.3278 C   0  0  0  0  0  0  0  0  0  0  0  0
   10.4946   -3.5529   18.3757 C   0  0  0  0  0  0  0  0  0  0  0  0
    1.3800  -11.0602   17.6029 C   0  0  0  0  0  0  0  0  0  0  0  0
    9.6392   -4.6283   16.4680 C   0  0  0  0  0  0  0  0  0  0  0  0
    2.1377  -11.4547   18.6818 N   0  0  0  0  0  0  0  0  0  0  0  0
    3.2391   -9.7675   16.9726 C   0  0  0  0  0  0  0  0  0  0  0  0
    1.2820   -9.7426   15.6598 C   0  0  0  0  0  0  0  0  0  0  0  0
   10.4437   -2.9472   22.5036 C   0  0  0  0  0  0  0  0  0  0  0  0
    8.0536   -6.5003   16.7660 N   0  0  0  0  0  0  0  0  0  0  0  0
    8.1107   -7.0576   15.4333 C   0  0  0  0  0  0  0  0  0  0  0  0
   11.2000   -2.3083   20.3111 C   0  0  0  0  0  0  0  0  0  0  0  0
   10.0159   -1.3631   24.3674 C   0  0  0  0  0  0  0  0  0  0  0  0
    0.0932  -10.2580   15.4147 C   0  0  0  0  0  0  0  0  0  0  0  0
   10.3918   -3.7161   17.0376 C   0  0  0  0  0  0  0  0  0  0  0  0
   10.2500   -1.6172   22.9628 C   0  0  0  0  0  0  0  0  0  0  0  0
    0.0930  -11.5106   17.3169 C   0  0  0  0  0  0  0  0  0  0  0  0
    9.9697   -4.3124   20.5467 C   0  0  0  0  0  0  0  0  0  0  0  0
    6.1277   -7.8880   16.4674 C   0  0  0  0  0  0  0  0  0  0  0  0
   10.5899   -4.0507   23.5190 C   0  0  0  0  0  0  0  0  0  0  0  0
   11.1900   -2.5495   18.9637 C   0  0  0  0  0  0  0  0  0  0  0  0
   10.5661   -3.2350   21.1462 C   0  0  0  0  0  0  0  0  0  0  0  0
    9.0099   -5.3721   18.5652 C   0  0  0  0  0  0  0  0  0  0  0  0
    8.8082   -5.5701   17.1758 C   0  0  0  0  0  0  0  0  0  0  0  0
    5.1379   -9.4305   17.9410 He  0  0  0  0  0  0  0  0  0  0  0  0
  1 10  1  0
  1 28  1  0
  2  8  4  0
  2 11  3  0
  2 22  4  0
  3 12  4  0
  3 27  4  0
  3 32  4  0
  4 13  4  0
  4 16  4  0
  4 17  4  0
  5  6  4  0
  5 15  4  0
  6 16  4  0
  7 12  2  0
  7 23  4  0
  7 26  4  0
  8 29  4  0
  9 19  1  0
  9 28  1  0
 10 16  1  0
 10 25  4  0
 11 20  1  0
 11 28  1  0
 12 24  4  0
 12 30  4  0
 13 15  4  0
 13 26  4  0
 14 21  4  0
 14 24  4  0
 14 33  4  0
 17 23  4  0
 18 25  4  0
 18 29  4  0
 18 31  1  0
 19 20  1  0
 19 33  1  0
 21 30  4  0
 21 31  4  0
 22 25  4  0
 27 31  4  0
 32 33  4  0
M  END
$$$$

 Created by Python create_sdf_string function

 34 40  0  0  0  0  0  0  0  0999 V2000
    5.1784   -8.7065   16.9119 C   0  0  0  0  0  0  0  0  0  0  0  0
   10.1352   -2.4594   25.2918 C   0  0  0  0  0  0  0  0  0  0  0  0
    9.7979   -4.4582   19.1769 C   0  0  0  0  0  0  0  0  0  0  0  0
    1.9556  -10.1879   16.7458 C   0  0  0  0  0  0  0  0  0  0  0  0
    3.2745  -10.9975   18.8700 C   0  0  0  0  0  0  0  0  0  0  0  0
    3.8675  -10.1343   18.0472 C   0  0  0  0  0  0  0  0  0  0  0  0
   -0.4988  -11.0997   16.2830 N   0  0  0  0  0  0  0  0  0  0  0  0
   10.3809   -3.7845   24.8565 C   0  0  0  0  0  0  0  0  0  0  0  0
    6.8319   -6.9623   17.3907 C   0  0  0  0  0  0  0  0  0  0  0  0
    4.0485   -8.9130   16.2911 N   0  0  0  0  0  0  0  0  0  0  0  0
    6.9518   -8.0622   15.3426 C   0  0  0  0  0  0  0  0  0  0  0  0
   10.5008   -3.5345   18.3838 C   0  0  0  0  0  0  0  0  0  0  0  0
    1.3711  -11.0799   17.6238 C   0  0  0  0  0  0  0  0  0  0  0  0
    9.6179   -4.6685   16.4772 C   0  0  0  0  0  0  0  0  0  0  0  0
    2.0811  -11.4703   18.7017 N   0  0  0  0  0  0  0  0  0  0  0  0
    3.2140   -9.7565   16.9923 C   0  0  0  0  0  0  0  0  0  0  0  0
    5.0874   -9.4364   17.9483 N   0  0  0  0  0  0  0  0  0  0  0  0
    1.2953   -9.7572   15.6525 C   0  0  0  0  0  0  0  0  0  0  0  0
   10.4646   -2.9698   22.5629 C   0  0  0  0  0  0  0  0  0  0  0  0
    8.0150   -6.4851   16.7461 N   0  0  0  0  0  0  0  0  0  0  0  0
    8.0888   -7.0672   15.4413 C   0  0  0  0  0  0  0  0  0  0  0  0
   11.2079   -2.3201   20.2823 C   0  0  0  0  0  0  0  0  0  0  0  0
   10.0341   -1.3738   24.3709 C   0  0  0  0  0  0  0  0  0  0  0  0
    0.0844  -10.2446   15.4325 C   0  0  0  0  0  0  0  0  0  0  0  0
   10.3846   -3.7226   17.0278 C   0  0  0  0  0  0  0  0  0  0  0  0
   10.2687   -1.6389   22.9883 C   0  0  0  0  0  0  0  0  0  0  0  0
    0.1151  -11.5166   17.3475 C   0  0  0  0  0  0  0  0  0  0  0  0
    9.9495   -4.3081   20.5505 C   0  0  0  0  0  0  0  0  0  0  0  0
    6.1535   -7.8461   16.5014 C   0  0  0  0  0  0  0  0  0  0  0  0
   10.5595   -4.0230   23.4848 C   0  0  0  0  0  0  0  0  0  0  0  0
   11.2072   -2.5241   18.9515 C   0  0  0  0  0  0  0  0  0  0  0  0
   10.5512   -3.2251   21.1318 C   0  0  0  0  0  0  0  0  0  0  0  0
    9.0093   -5.3944   18.5636 C   0  0  0  0  0  0  0  0  0  0  0  0
    8.8530   -5.5512   17.2302 C   0  0  0  0  0  0  0  0  0  0  0  0
  1 10  1  0
  1 17  2  0
  1 29  1  0
  2  8  4  0
  2 23  4  0
  3 12  4  0
  3 28  4  0
  3 33  4  0
  4 13  4  0
  4 16  4  0
  4 18  4  0
  5  6  4  0
  5 15  4  0
  6 16  4  0
  6 17  1  0
  7 24  4  0
  7 27  4  0
  8 30  4  0
  9 20  1  0
  9 29  1  0
 10 16  1  0
 11 21  1  0
 11 29  1  0
 12 25  4  0
 12 31  4  0
 13 15  4  0
 13 27  4  0
 14 25  4  0
 14 34  4  0
 18 24  4  0
 19 26  4  0
 19 30  4  0
 19 32  1  0
 20 21  1  0
 20 34  1  0
 22 31  4  0
 22 32  4  0
 23 26  4  0
 28 32  4  0
 33 34  4  0
M  END
$$$$

 Created by Python create_sdf_string function

 34 45  0  0  0  0  0  0  0  0999 V2000
    5.1758   -8.6833   16.8974 C   0  0  0  0  0  0  0  0  0  0  0  0
   10.1043   -2.5022   25.2587 C   0  0  0  0  0  0  0  0  0  0  0  0
    9.8084   -4.4734   19.1487 C   0  0  0  0  0  0  0  0  0  0  0  0
    2.0034  -10.1278   16.7338 C   0  0  0  0  0  0  0  0  0  0  0  0
    3.2207  -10.9304   18.8699 C   0  0  0  0  0  0  0  0  0  0  0  0
    3.8390  -10.1436   18.0526 C   0  0  0  0  0  0  0  0  0  0  0  0
   -0.4726  -11.1713   16.3182 N   0  0  0  0  0  0  0  0  0  0  0  0
   10.3772   -3.8095   24.8434 C   0  0  0  0  0  0  0  0  0  0  0  0
    6.8244   -6.9928   17.3845 C   0  0  0  0  0  0  0  0  0  0  0  0
    4.0549   -8.8765   16.2508 N   0  0  0  0  0  0  0  0  0  0  0  0
    6.9894   -8.0261   15.3775 C   0  0  0  0  0  0  0  0  0  0  0  0
   10.4848   -3.5359   18.3703 C   0  0  0  0  0  0  0  0  0  0  0  0
    1.3920  -11.1088   17.6459 C   0  0  0  0  0  0  0  0  0  0  0  0
    9.6208   -4.6777   16.5226 C   0  0  0  0  0  0  0  0  0  0  0  0
    2.0720  -11.4517   18.6999 N   0  0  0  0  0  0  0  0  0  0  0  0
    3.2593   -9.7848   16.9728 C   0  0  0  0  0  0  0  0  0  0  0  0
    5.1184   -9.3844   17.9456 N   0  0  0  0  0  0  0  0  0  0  0  0
    1.2657   -9.7629   15.6541 C   0  0  0  0  0  0  0  0  0  0  0  0
   10.4127   -2.9745   22.6089 C   0  0  0  0  0  0  0  0  0  0  0  0
    7.9949   -6.4618   16.7626 N   0  0  0  0  0  0  0  0  0  0  0  0
    8.0424   -7.0744   15.4646 C   0  0  0  0  0  0  0  0  0  0  0  0
   11.2102   -2.2983   20.2602 C   0  0  0  0  0  0  0  0  0  0  0  0
   10.0121   -1.3635   24.3899 C   0  0  0  0  0  0  0  0  0  0  0  0
    0.0906  -10.2289   15.4702 C   0  0  0  0  0  0  0  0  0  0  0  0
   10.3528   -3.7552   16.9791 C   0  0  0  0  0  0  0  0  0  0  0  0
   10.2838   -1.6385   23.0074 C   0  0  0  0  0  0  0  0  0  0  0  0
    0.0893  -11.5366   17.3349 C   0  0  0  0  0  0  0  0  0  0  0  0
    9.9450   -4.2947   20.5472 C   0  0  0  0  0  0  0  0  0  0  0  0
    6.1718   -7.8581   16.5045 C   0  0  0  0  0  0  0  0  0  0  0  0
   10.5735   -4.0095   23.4877 C   0  0  0  0  0  0  0  0  0  0  0  0
   11.2162   -2.5497   18.9598 C   0  0  0  0  0  0  0  0  0  0  0  0
   10.5460   -3.2280   21.1237 C   0  0  0  0  0  0  0  0  0  0  0  0
    9.0154   -5.3842   18.5735 C   0  0  0  0  0  0  0  0  0  0  0  0
    8.8374   -5.5490   17.2125 C   0  0  0  0  0  0  0  0  0  0  0  0
  1 10  1  0
  1 17  2  0
  1 29  1  0
  2  8  4  0
  2 23  4  0
  3 12  4  0
  3 28  4  0
  3 33  4  0
  4 13  4  0
  4 16  4  0
  4 18  4  0
  5  6  4  0
  5 15  4  0
  6 16  4  0
  6 17  1  0
  7 24  4  0
  7 27  4  0
  8 10  2  0
  8 30  4  0
  9 20  1  0
  9 29  1  0
 10 16  1  0
 11 21  1  0
 11 29  1  0
 12 25  4  0
 12 31  4  0
 13 15  4  0
 13 27  4  0
 13 31  3  0
 14 25  4  0
 14 34  4  0
 18 24  4  0
 19 26  4  0
 19 30  4  0
 19 32  1  0
 20 21  1  0
 20 25  4  0
 20 30  4  0
 20 34  1  0
 22 26  1  0
 22 31  4  0
 22 32  4  0
 23 26  4  0
 28 32  4  0
 33 34  4  0
M  END
$$$$

 Created by Python create_sdf_string function

 34 40  0  0  0  0  0  0  0  0999 V2000
    5.1706   -8.7037   16.9278 C   0  0  0  0  0  0  0  0  0  0  0  0
   10.1003   -2.4816   25.2841 C   0  0  0  0  0  0  0  0  0  0  0  0
    9.8051   -4.4516   19.1612 C   0  0  0  0  0  0  0  0  0  0  0  0
    1.9633  -10.2001   16.7513 C   0  0  0  0  0  0  0  0  0  0  0  0
    3.2719  -10.9713   18.8937 C   0  0  0  0  0  0  0  0  0  0  0  0
    3.8607  -10.1132   18.0465 C   0  0  0  0  0  0  0  0  0  0  0  0
   -0.5080  -11.1469   16.2949 N   0  0  0  0  0  0  0  0  0  0  0  0
   10.3769   -3.7881   24.8368 C   0  0  0  0  0  0  0  0  0  0  0  0
    6.8284   -7.0015   17.4190 C   0  0  0  0  0  0  0  0  0  0  0  0
    4.0405   -8.9102   16.2645 N   0  0  0  0  0  0  0  0  0  0  0  0
    6.9520   -8.0386   15.3763 C   0  0  0  0  0  0  0  0  0  0  0  0
   10.5043   -3.5336   18.3618 C   0  0  0  0  0  0  0  0  0  0  0  0
    1.3694  -11.0905   17.6385 C   0  0  0  0  0  0  0  0  0  0  0  0
    9.6021   -4.6938   16.4932 C   0  0  0  0  0  0  0  0  0  0  0  0
    2.0715  -11.4614   18.7377 N   0  0  0  0  0  0  0  0  0  0  0  0
    3.2046   -9.7626   16.9818 C   0  0  0  0  0  0  0  0  0  0  0  0
    5.0843   -9.4104   17.9738 N   0  0  0  0  0  0  0  0  0  0  0  0
    1.2871   -9.7594   15.6521 C   0  0  0  0  0  0  0  0  0  0  0  0
   10.4575   -2.9610   22.5683 C   0  0  0  0  0  0  0  0  0  0  0  0
    7.9716   -6.4657   16.7536 N   0  0  0  0  0  0  0  0  0  0  0  0
    8.0677   -7.0527   15.4612 C   0  0  0  0  0  0  0  0  0  0  0  0
   11.2092   -2.3139   20.2647 C   0  0  0  0  0  0  0  0  0  0  0  0
   10.0345   -1.3898   24.3781 C   0  0  0  0  0  0  0  0  0  0  0  0
    0.0600  -10.2525   15.4645 C   0  0  0  0  0  0  0  0  0  0  0  0
   10.3840   -3.7231   17.0095 C   0  0  0  0  0  0  0  0  0  0  0  0
   10.2858   -1.6369   23.0108 C   0  0  0  0  0  0  0  0  0  0  0  0
    0.1199  -11.5493   17.3629 C   0  0  0  0  0  0  0  0  0  0  0  0
    9.9382   -4.2967   20.5346 C   0  0  0  0  0  0  0  0  0  0  0  0
    6.1671   -7.8680   16.5340 C   0  0  0  0  0  0  0  0  0  0  0  0
   10.5413   -4.0123   23.4727 C   0  0  0  0  0  0  0  0  0  0  0  0
   11.2096   -2.5229   18.9317 C   0  0  0  0  0  0  0  0  0  0  0  0
   10.5465   -3.2128   21.1323 C   0  0  0  0  0  0  0  0  0  0  0  0
    9.0186   -5.4033   18.5777 C   0  0  0  0  0  0  0  0  0  0  0  0
    8.8471   -5.5605   17.2491 C   0  0  0  0  0  0  0  0  0  0  0  0
  1 10  1  0
  1 17  2  0
  1 29  1  0
  2  8  4  0
  2 23  4  0
  3 12  4  0
  3 28  4  0
  3 33  4  0
  4 13  4  0
  4 16  4  0
  4 18  4  0
  5  6  4  0
  5 15  4  0
  6 16  4  0
  6 17  1  0
  7 24  4  0
  7 27  4  0
  8 30  4  0
  9 20  1  0
  9 29  1  0
 10 16  1  0
 11 21  1  0
 11 29  1  0
 12 25  4  0
 12 31  4  0
 13 15  4  0
 13 27  4  0
 14 25  4  0
 14 34  4  0
 18 24  4  0
 19 26  4  0
 19 30  4  0
 19 32  1  0
 20 21  1  0
 20 34  1  0
 22 31  4  0
 22 32  4  0
 23 26  4  0
 28 32  4  0
 33 34  4  0
M  END
$$$$

 Created by Python create_sdf_string function

 34 41  0  0  0  0  0  0  0  0999 V2000
    5.1363   -8.7061   16.9142 C   0  0  0  0  0  0  0  0  0  0  0  0
   10.1091   -2.4865   25.2260 C   0  0  0  0  0  0  0  0  0  0  0  0
    9.8531   -4.4292   19.1924 C   0  0  0  0  0  0  0  0  0  0  0  0
    1.9206  -10.1624   16.7953 C   0  0  0  0  0  0  0  0  0  0  0  0
    3.2659  -10.9752   18.8658 C   0  0  0  0  0  0  0  0  0  0  0  0
    3.8303  -10.1230   18.0333 C   0  0  0  0  0  0  0  0  0  0  0  0
   -0.5115  -11.1524   16.2895 N   0  0  0  0  0  0  0  0  0  0  0  0
   10.4106   -3.7924   24.8159 C   0  0  0  0  0  0  0  0  0  0  0  0
    6.8682   -7.0027   17.4537 C   0  0  0  0  0  0  0  0  0  0  0  0
    4.0265   -8.9434   16.2511 N   0  0  0  0  0  0  0  0  0  0  0  0
    6.9686   -8.0342   15.4048 C   0  0  0  0  0  0  0  0  0  0  0  0
   10.4648   -3.5181   18.3912 C   0  0  0  0  0  0  0  0  0  0  0  0
    1.4108  -11.0778   17.6489 C   0  0  0  0  0  0  0  0  0  0  0  0
    9.5759   -4.7162   16.5088 C   0  0  0  0  0  0  0  0  0  0  0  0
    2.0701  -11.4826   18.7397 N   0  0  0  0  0  0  0  0  0  0  0  0
    3.2153   -9.7782   16.9396 C   0  0  0  0  0  0  0  0  0  0  0  0
    5.1285   -9.4142   17.9332 N   0  0  0  0  0  0  0  0  0  0  0  0
    1.3004   -9.7842   15.6565 C   0  0  0  0  0  0  0  0  0  0  0  0
   10.4722   -3.0074   22.5867 C   0  0  0  0  0  0  0  0  0  0  0  0
    7.9686   -6.4408   16.6705 N   0  0  0  0  0  0  0  0  0  0  0  0
    8.0535   -7.0729   15.4693 C   0  0  0  0  0  0  0  0  0  0  0  0
   11.1432   -2.3047   20.2640 C   0  0  0  0  0  0  0  0  0  0  0  0
    0.0281  -10.2425   15.4552 C   0  0  0  0  0  0  0  0  0  0  0  0
   10.3058   -3.7434   17.0077 C   0  0  0  0  0  0  0  0  0  0  0  0
   10.2841   -1.6461   23.0265 C   0  0  0  0  0  0  0  0  0  0  0  0
    0.0708  -11.5589   17.3291 C   0  0  0  0  0  0  0  0  0  0  0  0
    9.9294   -4.3244   20.5833 C   0  0  0  0  0  0  0  0  0  0  0  0
    6.1278   -7.8874   16.5511 C   0  0  0  0  0  0  0  0  0  0  0  0
   10.5166   -3.9884   23.4841 C   0  0  0  0  0  0  0  0  0  0  0  0
   11.2046   -2.5135   18.8971 C   0  0  0  0  0  0  0  0  0  0  0  0
   10.5066   -3.2490   21.1709 C   0  0  0  0  0  0  0  0  0  0  0  0
    9.0251   -5.4381   18.6108 C   0  0  0  0  0  0  0  0  0  0  0  0
    8.8480   -5.5395   17.2315 C   0  0  0  0  0  0  0  0  0  0  0  0
   10.0134   -1.4012   24.3958 He  0  0  0  0  0  0  0  0  0  0  0  0
  1 10  1  0
  1 17  2  0
  1 28  1  0
  2  8  4  0
  3 12  4  0
  3 27  4  0
  3 32  4  0
  4  8  2  0
  4 13  4  0
  4 16  4  0
  4 18  4  0
  5  6  4  0
  5 15  4  0
  6 16  4  0
  6 17  1  0
  6 24  1  0
  7 23  4  0
  7 26  4  0
  8 29  4  0
  9 20  1  0
  9 28  1  0
 10 16  1  0
 11 21  1  0
 11 28  1  0
 12 24  4  0
 12 30  4  0
 13 15  4  0
 13 26  4  0
 14 24  4  0
 14 33  4  0
 18 23  4  0
 19 25  4  0
 19 29  4  0
 19 31  1  0
 20 21  1  0
 20 33  1  0
 22 30  4  0
 22 31  4  0
 27 31  4  0
 29 31  1  0
 32 33  4  0
M  END
$$$$

 Created by Python create_sdf_string function

 34 40  0  0  0  0  0  0  0  0999 V2000
    5.1483   -8.7258   16.9276 C   0  0  0  0  0  0  0  0  0  0  0  0
   10.1167   -2.4898   25.2531 C   0  0  0  0  0  0  0  0  0  0  0  0
    9.8058   -4.4641   19.1893 C   0  0  0  0  0  0  0  0  0  0  0  0
    1.9325  -10.2143   16.7601 C   0  0  0  0  0  0  0  0  0  0  0  0
    3.2820  -10.9887   18.8854 C   0  0  0  0  0  0  0  0  0  0  0  0
    3.8452  -10.1312   18.0385 C   0  0  0  0  0  0  0  0  0  0  0  0
   -0.5251  -11.1488   16.2985 N   0  0  0  0  0  0  0  0  0  0  0  0
   10.3967   -3.7806   24.8177 C   0  0  0  0  0  0  0  0  0  0  0  0
    6.8753   -7.0065   17.4632 C   0  0  0  0  0  0  0  0  0  0  0  0
    4.0174   -8.9393   16.2654 N   0  0  0  0  0  0  0  0  0  0  0  0
    6.9471   -8.0267   15.4133 C   0  0  0  0  0  0  0  0  0  0  0  0
   10.4782   -3.5314   18.3669 C   0  0  0  0  0  0  0  0  0  0  0  0
    1.3534  -11.1029   17.6535 C   0  0  0  0  0  0  0  0  0  0  0  0
    9.5673   -4.7033   16.5007 C   0  0  0  0  0  0  0  0  0  0  0  0
    2.0790  -11.4776   18.7545 N   0  0  0  0  0  0  0  0  0  0  0  0
    3.1818   -9.7786   16.9892 C   0  0  0  0  0  0  0  0  0  0  0  0
    5.0717   -9.4289   17.9573 N   0  0  0  0  0  0  0  0  0  0  0  0
    1.2680   -9.7762   15.6617 C   0  0  0  0  0  0  0  0  0  0  0  0
   10.4504   -2.9579   22.5740 C   0  0  0  0  0  0  0  0  0  0  0  0
    7.9676   -6.4433   16.7354 N   0  0  0  0  0  0  0  0  0  0  0  0
    8.0637   -7.0546   15.4633 C   0  0  0  0  0  0  0  0  0  0  0  0
   11.1650   -2.3143   20.2642 C   0  0  0  0  0  0  0  0  0  0  0  0
   10.0444   -1.4147   24.3725 C   0  0  0  0  0  0  0  0  0  0  0  0
    0.0455  -10.2537   15.4652 C   0  0  0  0  0  0  0  0  0  0  0  0
   10.3303   -3.7334   17.0158 C   0  0  0  0  0  0  0  0  0  0  0  0
   10.2862   -1.6248   23.0200 C   0  0  0  0  0  0  0  0  0  0  0  0
    0.1015  -11.5637   17.3747 C   0  0  0  0  0  0  0  0  0  0  0  0
    9.9443   -4.3110   20.5629 C   0  0  0  0  0  0  0  0  0  0  0  0
    6.1738   -7.8616   16.5803 C   0  0  0  0  0  0  0  0  0  0  0  0
   10.5243   -4.0109   23.4716 C   0  0  0  0  0  0  0  0  0  0  0  0
   11.1850   -2.5016   18.9250 C   0  0  0  0  0  0  0  0  0  0  0  0
   10.5327   -3.2144   21.1496 C   0  0  0  0  0  0  0  0  0  0  0  0
    9.0289   -5.4356   18.6046 C   0  0  0  0  0  0  0  0  0  0  0  0
    8.8359   -5.5690   17.2604 C   0  0  0  0  0  0  0  0  0  0  0  0
  1 10  1  0
  1 17  2  0
  1 29  1  0
  2  8  4  0
  2 23  4  0
  3 12  4  0
  3 28  4  0
  3 33  4  0
  4 13  4  0
  4 16  4  0
  4 18  4  0
  5  6  4  0
  5 15  4  0
  6 16  4  0
  6 17  1  0
  7 24  4  0
  7 27  4  0
  8 30  4  0
  9 20  1  0
  9 29  1  0
 10 16  1  0
 11 21  1  0
 11 29  1  0
 12 25  4  0
 12 31  4  0
 13 15  4  0
 13 27  4  0
 14 25  4  0
 14 34  4  0
 18 24  4  0
 19 26  4  0
 19 30  4  0
 19 32  1  0
 20 21  1  0
 20 34  1  0
 22 31  4  0
 22 32  4  0
 23 26  4  0
 28 32  4  0
 33 34  4  0
M  END
$$$$

 Created by Python create_sdf_string function

 34 46  0  0  0  0  0  0  0  0999 V2000
    5.1276   -8.7348   16.8903 C   0  0  0  0  0  0  0  0  0  0  0  0
   10.1369   -2.5339   25.2344 C   0  0  0  0  0  0  0  0  0  0  0  0
    9.8323   -4.4723   19.2121 C   0  0  0  0  0  0  0  0  0  0  0  0
    1.9299  -10.2167   16.7681 C   0  0  0  0  0  0  0  0  0  0  0  0
    3.2487  -10.9718   18.8761 C   0  0  0  0  0  0  0  0  0  0  0  0
    3.8034  -10.1439   18.0179 C   0  0  0  0  0  0  0  0  0  0  0  0
   -0.5225  -11.1490   16.3259 N   0  0  0  0  0  0  0  0  0  0  0  0
   10.3525   -3.7554   24.8340 C   0  0  0  0  0  0  0  0  0  0  0  0
    6.8735   -7.0262   17.4963 C   0  0  0  0  0  0  0  0  0  0  0  0
    4.0547   -8.9152   16.2607 N   0  0  0  0  0  0  0  0  0  0  0  0
    6.9306   -8.0027   15.4228 C   0  0  0  0  0  0  0  0  0  0  0  0
   10.4512   -3.5247   18.4103 C   0  0  0  0  0  0  0  0  0  0  0  0
    1.3561  -11.0768   17.6454 C   0  0  0  0  0  0  0  0  0  0  0  0
    9.5372   -4.7147   16.5031 C   0  0  0  0  0  0  0  0  0  0  0  0
    2.0849  -11.4355   18.7378 N   0  0  0  0  0  0  0  0  0  0  0  0
    3.1840   -9.7926   16.9770 C   0  0  0  0  0  0  0  0  0  0  0  0
    5.0415   -9.4127   17.9611 N   0  0  0  0  0  0  0  0  0  0  0  0
    1.2309   -9.7612   15.6785 C   0  0  0  0  0  0  0  0  0  0  0  0
   10.4157   -2.9865   22.5496 C   0  0  0  0  0  0  0  0  0  0  0  0
    7.9331   -6.4595   16.7381 N   0  0  0  0  0  0  0  0  0  0  0  0
    8.0120   -7.0452   15.4473 C   0  0  0  0  0  0  0  0  0  0  0  0
   11.1617   -2.3245   20.2388 C   0  0  0  0  0  0  0  0  0  0  0  0
   10.0855   -1.4230   24.3381 C   0  0  0  0  0  0  0  0  0  0  0  0
    0.0418  -10.2140   15.4797 C   0  0  0  0  0  0  0  0  0  0  0  0
   10.3363   -3.7066   17.0228 C   0  0  0  0  0  0  0  0  0  0  0  0
   10.2606   -1.6093   23.0109 C   0  0  0  0  0  0  0  0  0  0  0  0
    0.0620  -11.5439   17.3745 C   0  0  0  0  0  0  0  0  0  0  0  0
    9.9571   -4.3283   20.5549 C   0  0  0  0  0  0  0  0  0  0  0  0
    6.1931   -7.8570   16.5928 C   0  0  0  0  0  0  0  0  0  0  0  0
   10.5509   -4.0192   23.4368 C   0  0  0  0  0  0  0  0  0  0  0  0
   11.1839   -2.4636   18.9408 C   0  0  0  0  0  0  0  0  0  0  0  0
   10.5043   -3.2257   21.1772 C   0  0  0  0  0  0  0  0  0  0  0  0
    9.0366   -5.4536   18.6211 C   0  0  0  0  0  0  0  0  0  0  0  0
    8.7934   -5.5583   17.2479 C   0  0  0  0  0  0  0  0  0  0  0  0
  1 10  1  0
  1 17  2  0
  1 29  1  0
  2  8  4  0
  2 23  4  0
  3 12  4  0
  3 28  4  0
  3 33  4  0
  4 13  4  0
  4 16  4  0
  4 18  4  0
  5  6  4  0
  5 15  4  0
  6 13  3  0
  6 16  4  0
  6 17  1  0
  7 24  4  0
  7 27  4  0
  7 31  2  0
  8 30  4  0
  9 20  1  0
  9 29  1  0
 10 16  1  0
 11 21  1  0
 11 29  1  0
 12 25  4  0
 12 27  4  0
 12 31  4  0
 13 15  4  0
 13 27  4  0
 13 30  1  0
 14 25  4  0
 14 34  4  0
 16 32  4  0
 18 24  4  0
 18 32  4  0
 19 26  4  0
 19 30  4  0
 19 32  1  0
 20 21  1  0
 20 34  1  0
 22 31  4  0
 22 32  4  0
 23 26  4  0
 28 32  4  0
 33 34  4  0
M  END
$$$$

 Created by Python create_sdf_string function

 34 40  0  0  0  0  0  0  0  0999 V2000
    5.1441   -8.7272   16.9427 C   0  0  0  0  0  0  0  0  0  0  0  0
   10.1339   -2.4863   25.2473 C   0  0  0  0  0  0  0  0  0  0  0  0
    9.8070   -4.4748   19.1843 C   0  0  0  0  0  0  0  0  0  0  0  0
    1.9168  -10.2104   16.7656 C   0  0  0  0  0  0  0  0  0  0  0  0
    3.2704  -10.9848   18.8888 C   0  0  0  0  0  0  0  0  0  0  0  0
    3.8249  -10.1288   18.0348 C   0  0  0  0  0  0  0  0  0  0  0  0
   -0.5373  -11.1398   16.3380 N   0  0  0  0  0  0  0  0  0  0  0  0
   10.3671   -3.7919   24.8112 C   0  0  0  0  0  0  0  0  0  0  0  0
    6.8826   -7.0319   17.5031 C   0  0  0  0  0  0  0  0  0  0  0  0
    4.0307   -8.9367   16.2676 N   0  0  0  0  0  0  0  0  0  0  0  0
    6.8944   -8.0072   15.4290 C   0  0  0  0  0  0  0  0  0  0  0  0
   10.4704   -3.5262   18.3777 C   0  0  0  0  0  0  0  0  0  0  0  0
    1.3398  -11.0999   17.6682 C   0  0  0  0  0  0  0  0  0  0  0  0
    9.5394   -4.6985   16.5095 C   0  0  0  0  0  0  0  0  0  0  0  0
    2.0597  -11.4722   18.7604 N   0  0  0  0  0  0  0  0  0  0  0  0
    3.1702   -9.7795   16.9842 C   0  0  0  0  0  0  0  0  0  0  0  0
    5.0365   -9.4301   17.9776 N   0  0  0  0  0  0  0  0  0  0  0  0
    1.2404   -9.7702   15.6704 C   0  0  0  0  0  0  0  0  0  0  0  0
   10.4464   -2.9556   22.5496 C   0  0  0  0  0  0  0  0  0  0  0  0
    7.9464   -6.4569   16.7724 N   0  0  0  0  0  0  0  0  0  0  0  0
    8.0125   -7.0285   15.4630 C   0  0  0  0  0  0  0  0  0  0  0  0
   11.1675   -2.3105   20.2623 C   0  0  0  0  0  0  0  0  0  0  0  0
   10.0834   -1.4018   24.3582 C   0  0  0  0  0  0  0  0  0  0  0  0
    0.0202  -10.2473   15.4907 C   0  0  0  0  0  0  0  0  0  0  0  0
   10.3178   -3.7284   17.0289 C   0  0  0  0  0  0  0  0  0  0  0  0
   10.2802   -1.6217   22.9868 C   0  0  0  0  0  0  0  0  0  0  0  0
    0.0870  -11.5551   17.4062 C   0  0  0  0  0  0  0  0  0  0  0  0
    9.9544   -4.3187   20.5619 C   0  0  0  0  0  0  0  0  0  0  0  0
    6.1795   -7.8772   16.6299 C   0  0  0  0  0  0  0  0  0  0  0  0
   10.5185   -4.0213   23.4469 C   0  0  0  0  0  0  0  0  0  0  0  0
   11.1745   -2.4734   18.9287 C   0  0  0  0  0  0  0  0  0  0  0  0
   10.5326   -3.2071   21.1283 C   0  0  0  0  0  0  0  0  0  0  0  0
    9.0342   -5.4474   18.6073 C   0  0  0  0  0  0  0  0  0  0  0  0
    8.8083   -5.5834   17.2712 C   0  0  0  0  0  0  0  0  0  0  0  0
  1 10  1  0
  1 17  2  0
  1 29  1  0
  2  8  4  0
  2 23  4  0
  3 12  4  0
  3 28  4  0
  3 33  4  0
  4 13  4  0
  4 16  4  0
  4 18  4  0
  5  6  4  0
  5 15  4  0
  6 16  4  0
  6 17  1  0
  7 24  4  0
  7 27  4  0
  8 30  4  0
  9 20  1  0
  9 29  1  0
 10 16  1  0
 11 21  1  0
 11 29  1  0
 12 25  4  0
 12 31  4  0
 13 15  4  0
 13 27  4  0
 14 25  4  0
 14 34  4  0
 18 24  4  0
 19 26  4  0
 19 30  4  0
 19 32  1  0
 20 21  1  0
 20 34  1  0
 22 31  4  0
 22 32  4  0
 23 26  4  0
 28 32  4  0
 33 34  4  0
M  END
$$$$

 Created by Python create_sdf_string function

 34 47  0  0  0  0  0  0  0  0999 V2000
    5.1573   -8.7277   16.9627 C   0  0  0  0  0  0  0  0  0  0  0  0
   10.1091   -2.4722   25.2859 C   0  0  0  0  0  0  0  0  0  0  0  0
    9.7671   -4.4677   19.2090 C   0  0  0  0  0  0  0  0  0  0  0  0
    1.9051  -10.2208   16.7611 C   0  0  0  0  0  0  0  0  0  0  0  0
    3.2735  -10.9780   18.8786 C   0  0  0  0  0  0  0  0  0  0  0  0
    3.8097  -10.1117   18.0354 C   0  0  0  0  0  0  0  0  0  0  0  0
   -0.5205  -11.1353   16.3375 N   0  0  0  0  0  0  0  0  0  0  0  0
   10.3854   -3.7955   24.7921 C   0  0  0  0  0  0  0  0  0  0  0  0
    6.8569   -7.0426   17.5031 C   0  0  0  0  0  0  0  0  0  0  0  0
    4.0338   -8.9352   16.2739 N   0  0  0  0  0  0  0  0  0  0  0  0
    6.9117   -8.0124   15.4239 C   0  0  0  0  0  0  0  0  0  0  0  0
   10.4419   -3.5378   18.3778 C   0  0  0  0  0  0  0  0  0  0  0  0
    1.3515  -11.1267   17.6786 C   0  0  0  0  0  0  0  0  0  0  0  0
    9.5392   -4.7009   16.5337 C   0  0  0  0  0  0  0  0  0  0  0  0
    2.0842  -11.4763   18.7594 N   0  0  0  0  0  0  0  0  0  0  0  0
    3.1954   -9.7741   16.9723 C   0  0  0  0  0  0  0  0  0  0  0  0
    5.0366   -9.4255   17.9930 N   0  0  0  0  0  0  0  0  0  0  0  0
    1.2744   -9.7488   15.6746 C   0  0  0  0  0  0  0  0  0  0  0  0
   10.4530   -2.9599   22.5360 C   0  0  0  0  0  0  0  0  0  0  0  0
    7.9667   -6.4553   16.7529 N   0  0  0  0  0  0  0  0  0  0  0  0
    7.9874   -7.0412   15.4579 C   0  0  0  0  0  0  0  0  0  0  0  0
   11.1672   -2.2739   20.2940 C   0  0  0  0  0  0  0  0  0  0  0  0
   10.0958   -1.4076   24.3351 C   0  0  0  0  0  0  0  0  0  0  0  0
    0.0002  -10.2130   15.4808 C   0  0  0  0  0  0  0  0  0  0  0  0
   10.3348   -3.7031   17.0744 C   0  0  0  0  0  0  0  0  0  0  0  0
   10.2369   -1.6109   22.9497 C   0  0  0  0  0  0  0  0  0  0  0  0
    0.0502  -11.5261   17.3976 C   0  0  0  0  0  0  0  0  0  0  0  0
    9.9601   -4.2962   20.5527 C   0  0  0  0  0  0  0  0  0  0  0  0
    6.1940   -7.8551   16.6444 C   0  0  0  0  0  0  0  0  0  0  0  0
   10.5043   -4.0092   23.4564 C   0  0  0  0  0  0  0  0  0  0  0  0
   11.1438   -2.4957   18.9338 C   0  0  0  0  0  0  0  0  0  0  0  0
   10.5258   -3.1898   21.0871 C   0  0  0  0  0  0  0  0  0  0  0  0
    9.0565   -5.4201   18.5882 C   0  0  0  0  0  0  0  0  0  0  0  0
    8.8069   -5.5760   17.2684 C   0  0  0  0  0  0  0  0  0  0  0  0
  1 10  1  0
  1 17  2  0
  1 29  1  0
  2  8  4  0
  2 23  4  0
  3 12  4  0
  3 28  4  0
  3 29  4  0
  3 33  4  0
  4 13  4  0
  4 16  4  0
  4 18  4  0
  5  6  4  0
  5 15  4  0
  6 16  4  0
  6 17  1  0
  7 24  4  0
  7 27  4  0
  8 29  3  0
  8 30  4  0
  9 18  4  0
  9 20  1  0
  9 29  1  0
 10 16  1  0
 11 18  4  0
 11 21  1  0
 11 29  1  0
 12 15  2  0
 12 25  4  0
 12 31  4  0
 13 15  4  0
 13 27  4  0
 14 25  4  0
 14 30  4  0
 14 34  4  0
 18 24  4  0
 19 26  4  0
 19 30  4  0
 19 32  1  0
 20 21  1  0
 20 24  2  0
 20 34  1  0
 22 31  4  0
 22 32  4  0
 23 26  4  0
 28 32  4  0
 33 34  4  0
M  END
$$$$

 Created by Python create_sdf_string function

 34 40  0  0  0  0  0  0  0  0999 V2000
    5.1402   -8.7299   16.9747 C   0  0  0  0  0  0  0  0  0  0  0  0
   10.1251   -2.4715   25.2594 C   0  0  0  0  0  0  0  0  0  0  0  0
    9.7946   -4.4624   19.1979 C   0  0  0  0  0  0  0  0  0  0  0  0
    1.9068  -10.2268   16.7787 C   0  0  0  0  0  0  0  0  0  0  0  0
    3.2733  -10.9968   18.9006 C   0  0  0  0  0  0  0  0  0  0  0  0
    3.8154  -10.1377   18.0574 C   0  0  0  0  0  0  0  0  0  0  0  0
   -0.5451  -11.1324   16.3508 N   0  0  0  0  0  0  0  0  0  0  0  0
   10.3773   -3.7848   24.7889 C   0  0  0  0  0  0  0  0  0  0  0  0
    6.8751   -7.0386   17.5228 C   0  0  0  0  0  0  0  0  0  0  0  0
    4.0186   -8.9459   16.2895 N   0  0  0  0  0  0  0  0  0  0  0  0
    6.8786   -8.0105   15.4413 C   0  0  0  0  0  0  0  0  0  0  0  0
   10.4581   -3.5205   18.3923 C   0  0  0  0  0  0  0  0  0  0  0  0
    1.3384  -11.1136   17.6818 C   0  0  0  0  0  0  0  0  0  0  0  0
    9.5491   -4.6910   16.5300 C   0  0  0  0  0  0  0  0  0  0  0  0
    2.0813  -11.4902   18.7703 N   0  0  0  0  0  0  0  0  0  0  0  0
    3.1606   -9.7919   17.0040 C   0  0  0  0  0  0  0  0  0  0  0  0
    5.0244   -9.4324   18.0123 N   0  0  0  0  0  0  0  0  0  0  0  0
    1.2500   -9.7754   15.6807 C   0  0  0  0  0  0  0  0  0  0  0  0
   10.4455   -2.9523   22.5324 C   0  0  0  0  0  0  0  0  0  0  0  0
    7.9479   -6.4686   16.7852 N   0  0  0  0  0  0  0  0  0  0  0  0
    7.9889   -7.0293   15.4727 C   0  0  0  0  0  0  0  0  0  0  0  0
   11.1716   -2.2811   20.2487 C   0  0  0  0  0  0  0  0  0  0  0  0
   10.0898   -1.3939   24.3387 C   0  0  0  0  0  0  0  0  0  0  0  0
    0.0122  -10.2388   15.4979 C   0  0  0  0  0  0  0  0  0  0  0  0
   10.3147   -3.7277   17.0464 C   0  0  0  0  0  0  0  0  0  0  0  0
   10.2719   -1.6201   22.9752 C   0  0  0  0  0  0  0  0  0  0  0  0
    0.0773  -11.5490   17.4232 C   0  0  0  0  0  0  0  0  0  0  0  0
    9.9536   -4.2937   20.5606 C   0  0  0  0  0  0  0  0  0  0  0  0
    6.1743   -7.8865   16.6562 C   0  0  0  0  0  0  0  0  0  0  0  0
   10.5011   -4.0037   23.4409 C   0  0  0  0  0  0  0  0  0  0  0  0
   11.1568   -2.4822   18.9271 C   0  0  0  0  0  0  0  0  0  0  0  0
   10.5386   -3.1903   21.1042 C   0  0  0  0  0  0  0  0  0  0  0  0
    9.0282   -5.4422   18.6119 C   0  0  0  0  0  0  0  0  0  0  0  0
    8.8195   -5.5801   17.2820 C   0  0  0  0  0  0  0  0  0  0  0  0
  1 10  1  0
  1 17  2  0
  1 29  1  0
  2  8  4  0
  2 23  4  0
  3 12  4  0
  3 28  4  0
  3 33  4  0
  4 13  4  0
  4 16  4  0
  4 18  4  0
  5  6  4  0
  5 15  4  0
  6 16  4  0
  6 17  1  0
  7 24  4  0
  7 27  4  0
  8 30  4  0
  9 20  1  0
  9 29  1  0
 10 16  1  0
 11 21  1  0
 11 29  1  0
 12 25  4  0
 12 31  4  0
 13 15  4  0
 13 27  4  0
 14 25  4  0
 14 34  4  0
 18 24  4  0
 19 26  4  0
 19 30  4  0
 19 32  1  0
 20 21  1  0
 20 34  1  0
 22 31  4  0
 22 32  4  0
 23 26  4  0
 28 32  4  0
 33 34  4  0
M  END
$$$$

 Created by Python create_sdf_string function

 34 41  0  0  0  0  0  0  0  0999 V2000
    5.1280   -8.7336   16.9868 C   0  0  0  0  0  0  0  0  0  0  0  0
   10.1151   -2.4591   25.2834 C   0  0  0  0  0  0  0  0  0  0  0  0
    9.7831   -4.4712   19.2007 C   0  0  0  0  0  0  0  0  0  0  0  0
    1.9132  -10.2539   16.7710 C   0  0  0  0  0  0  0  0  0  0  0  0
    3.2523  -11.0006   18.8971 C   0  0  0  0  0  0  0  0  0  0  0  0
    3.8259  -10.1470   18.0639 C   0  0  0  0  0  0  0  0  0  0  0  0
   -0.5850  -11.1376   16.3631 N   0  0  0  0  0  0  0  0  0  0  0  0
   10.3768   -3.7893   24.7800 C   0  0  0  0  0  0  0  0  0  0  0  0
    6.8675   -7.0410   17.5406 C   0  0  0  0  0  0  0  0  0  0  0  0
    4.0316   -8.9616   16.2799 N   0  0  0  0  0  0  0  0  0  0  0  0
    6.8781   -7.9940   15.4379 C   0  0  0  0  0  0  0  0  0  0  0  0
   10.4690   -3.5184   18.3810 C   0  0  0  0  0  0  0  0  0  0  0  0
    1.3204  -11.0980   17.6704 C   0  0  0  0  0  0  0  0  0  0  0  0
    9.5530   -4.7066   16.5306 C   0  0  0  0  0  0  0  0  0  0  0  0
    2.0687  -11.4987   18.7854 N   0  0  0  0  0  0  0  0  0  0  0  0
    3.1786   -9.7912   17.0051 C   0  0  0  0  0  0  0  0  0  0  0  0
    5.0318   -9.4479   18.0507 N   0  0  0  0  0  0  0  0  0  0  0  0
    1.2362   -9.7987   15.6706 C   0  0  0  0  0  0  0  0  0  0  0  0
   10.4501   -2.9524   22.5480 C   0  0  0  0  0  0  0  0  0  0  0  0
    7.9831   -6.4739   16.7506 N   0  0  0  0  0  0  0  0  0  0  0  0
    7.9925   -7.0296   15.4906 C   0  0  0  0  0  0  0  0  0  0  0  0
   11.1588   -2.2893   20.2297 C   0  0  0  0  0  0  0  0  0  0  0  0
   10.1165   -1.3798   24.3486 C   0  0  0  0  0  0  0  0  0  0  0  0
    0.0186  -10.2310   15.4871 C   0  0  0  0  0  0  0  0  0  0  0  0
   10.3171   -3.7055   17.0474 C   0  0  0  0  0  0  0  0  0  0  0  0
   10.2731   -1.6208   22.9956 C   0  0  0  0  0  0  0  0  0  0  0  0
    0.0789  -11.5419   17.4272 C   0  0  0  0  0  0  0  0  0  0  0  0
    9.9590   -4.2855   20.5701 C   0  0  0  0  0  0  0  0  0  0  0  0
    6.1700   -7.9113   16.6616 C   0  0  0  0  0  0  0  0  0  0  0  0
   10.5190   -4.0185   23.4253 C   0  0  0  0  0  0  0  0  0  0  0  0
   11.1602   -2.4933   18.9282 C   0  0  0  0  0  0  0  0  0  0  0  0
   10.5396   -3.1987   21.0982 C   0  0  0  0  0  0  0  0  0  0  0  0
    9.0475   -5.4313   18.6155 C   0  0  0  0  0  0  0  0  0  0  0  0
    8.8337   -5.5700   17.2781 C   0  0  0  0  0  0  0  0  0  0  0  0
  1 10  1  0
  1 17  2  0
  1 29  1  0
  2  7  3  0
  2  8  4  0
  2 23  4  0
  3 12  4  0
  3 28  4  0
  3 33  4  0
  4 13  4  0
  4 16  4  0
  4 18  4  0
  5  6  4  0
  5 15  4  0
  6 16  4  0
  6 17  1  0
  7 24  4  0
  7 27  4  0
  8 30  4  0
  9 20  1  0
  9 29  1  0
 10 16  1  0
 11 21  1  0
 11 29  1  0
 12 25  4  0
 12 31  4  0
 13 15  4  0
 13 27  4  0
 14 25  4  0
 14 34  4  0
 18 24  4  0
 19 26  4  0
 19 30  4  0
 19 32  1  0
 20 21  1  0
 20 34  1  0
 22 31  4  0
 22 32  4  0
 23 26  4  0
 28 32  4  0
 33 34  4  0
M  END
$$$$

 Created by Python create_sdf_string function

 34 40  0  0  0  0  0  0  0  0999 V2000
    5.1315   -8.7501   17.0035 C   0  0  0  0  0  0  0  0  0  0  0  0
   10.1308   -2.4681   25.2657 C   0  0  0  0  0  0  0  0  0  0  0  0
    9.8018   -4.4596   19.1957 C   0  0  0  0  0  0  0  0  0  0  0  0
    1.9048  -10.2432   16.7918 C   0  0  0  0  0  0  0  0  0  0  0  0
    3.2638  -11.0156   18.9216 C   0  0  0  0  0  0  0  0  0  0  0  0
    3.8140  -10.1578   18.0842 C   0  0  0  0  0  0  0  0  0  0  0  0
   -0.5633  -11.1333   16.3774 N   0  0  0  0  0  0  0  0  0  0  0  0
   10.3717   -3.7813   24.7881 C   0  0  0  0  0  0  0  0  0  0  0  0
    6.8922   -7.0413   17.5477 C   0  0  0  0  0  0  0  0  0  0  0  0
    4.0182   -8.9679   16.3022 N   0  0  0  0  0  0  0  0  0  0  0  0
    6.8605   -7.9854   15.4526 C   0  0  0  0  0  0  0  0  0  0  0  0
   10.4628   -3.5218   18.3830 C   0  0  0  0  0  0  0  0  0  0  0  0
    1.3329  -11.1225   17.7004 C   0  0  0  0  0  0  0  0  0  0  0  0
    9.5547   -4.6992   16.5232 C   0  0  0  0  0  0  0  0  0  0  0  0
    2.0714  -11.5001   18.7917 N   0  0  0  0  0  0  0  0  0  0  0  0
    3.1614   -9.8071   17.0177 C   0  0  0  0  0  0  0  0  0  0  0  0
    5.0172   -9.4494   18.0485 N   0  0  0  0  0  0  0  0  0  0  0  0
    1.2429   -9.8116   15.6832 C   0  0  0  0  0  0  0  0  0  0  0  0
   10.4572   -2.9399   22.5374 C   0  0  0  0  0  0  0  0  0  0  0  0
    7.9683   -6.4757   16.7983 N   0  0  0  0  0  0  0  0  0  0  0  0
    7.9857   -7.0281   15.4928 C   0  0  0  0  0  0  0  0  0  0  0  0
   11.1730   -2.2804   20.2337 C   0  0  0  0  0  0  0  0  0  0  0  0
   10.1140   -1.3767   24.3508 C   0  0  0  0  0  0  0  0  0  0  0  0
    0.0060  -10.2618   15.5042 C   0  0  0  0  0  0  0  0  0  0  0  0
   10.3147   -3.7255   17.0406 C   0  0  0  0  0  0  0  0  0  0  0  0
   10.3002   -1.6191   22.9945 C   0  0  0  0  0  0  0  0  0  0  0  0
    0.0733  -11.5522   17.4398 C   0  0  0  0  0  0  0  0  0  0  0  0
    9.9584   -4.2911   20.5645 C   0  0  0  0  0  0  0  0  0  0  0  0
    6.1851   -7.9037   16.6894 C   0  0  0  0  0  0  0  0  0  0  0  0
   10.5036   -4.0032   23.4337 C   0  0  0  0  0  0  0  0  0  0  0  0
   11.1670   -2.4792   18.9213 C   0  0  0  0  0  0  0  0  0  0  0  0
   10.5484   -3.1791   21.1046 C   0  0  0  0  0  0  0  0  0  0  0  0
    9.0297   -5.4466   18.6231 C   0  0  0  0  0  0  0  0  0  0  0  0
    8.8353   -5.5791   17.2907 C   0  0  0  0  0  0  0  0  0  0  0  0
  1 10  1  0
  1 17  2  0
  1 29  1  0
  2  8  4  0
  2 23  4  0
  3 12  4  0
  3 28  4  0
  3 33  4  0
  4 13  4  0
  4 16  4  0
  4 18  4  0
  5  6  4  0
  5 15  4  0
  6 16  4  0
  6 17  1  0
  7 24  4  0
  7 27  4  0
  8 30  4  0
  9 20  1  0
  9 29  1  0
 10 16  1  0
 11 21  1  0
 11 29  1  0
 12 25  4  0
 12 31  4  0
 13 15  4  0
 13 27  4  0
 14 25  4  0
 14 34  4  0
 18 24  4  0
 19 26  4  0
 19 30  4  0
 19 32  1  0
 20 21  1  0
 20 34  1  0
 22 31  4  0
 22 32  4  0
 23 26  4  0
 28 32  4  0
 33 34  4  0
M  END
$$$$

 Created by Python create_sdf_string function

 34 41  0  0  0  0  0  0  0  0999 V2000
    5.1428   -8.7406   17.0022 C   0  0  0  0  0  0  0  0  0  0  0  0
   10.1317   -2.4586   25.2693 C   0  0  0  0  0  0  0  0  0  0  0  0
    9.8066   -4.4425   19.1955 C   0  0  0  0  0  0  0  0  0  0  0  0
    1.8945  -10.2390   16.8013 C   0  0  0  0  0  0  0  0  0  0  0  0
    3.2820  -11.0194   18.9182 C   0  0  0  0  0  0  0  0  0  0  0  0
    3.8007  -10.1532   18.0820 C   0  0  0  0  0  0  0  0  0  0  0  0
   -0.5629  -11.1304   16.3784 N   0  0  0  0  0  0  0  0  0  0  0  0
   10.3741   -3.7927   24.7884 C   0  0  0  0  0  0  0  0  0  0  0  0
    6.8876   -7.0213   17.5518 C   0  0  0  0  0  0  0  0  0  0  0  0
    4.0316   -8.9921   16.3035 N   0  0  0  0  0  0  0  0  0  0  0  0
    6.8670   -7.9802   15.4516 C   0  0  0  0  0  0  0  0  0  0  0  0
   10.4700   -3.5261   18.3762 C   0  0  0  0  0  0  0  0  0  0  0  0
    1.3342  -11.1189   17.7026 C   0  0  0  0  0  0  0  0  0  0  0  0
    9.5577   -4.6920   16.5154 C   0  0  0  0  0  0  0  0  0  0  0  0
    2.0775  -11.5018   18.7844 N   0  0  0  0  0  0  0  0  0  0  0  0
    3.1637   -9.8078   17.0163 C   0  0  0  0  0  0  0  0  0  0  0  0
    5.0291   -9.4443   18.0555 N   0  0  0  0  0  0  0  0  0  0  0  0
    1.2503   -9.7998   15.6691 C   0  0  0  0  0  0  0  0  0  0  0  0
   10.4641   -2.9322   22.5541 C   0  0  0  0  0  0  0  0  0  0  0  0
    7.9648   -6.4526   16.8007 N   0  0  0  0  0  0  0  0  0  0  0  0
    7.9899   -7.0554   15.4915 C   0  0  0  0  0  0  0  0  0  0  0  0
   11.1887   -2.2824   20.2365 C   0  0  0  0  0  0  0  0  0  0  0  0
   10.1312   -1.3837   24.3393 C   0  0  0  0  0  0  0  0  0  0  0  0
   -0.0015  -10.2539   15.5018 C   0  0  0  0  0  0  0  0  0  0  0  0
   10.3223   -3.7238   17.0704 C   0  0  0  0  0  0  0  0  0  0  0  0
   10.3110   -1.6284   23.0097 C   0  0  0  0  0  0  0  0  0  0  0  0
    0.0734  -11.5519   17.4327 C   0  0  0  0  0  0  0  0  0  0  0  0
    9.9694   -4.2863   20.5516 C   0  0  0  0  0  0  0  0  0  0  0  0
    6.1791   -7.8762   16.7059 C   0  0  0  0  0  0  0  0  0  0  0  0
   10.4973   -4.0233   23.4450 C   0  0  0  0  0  0  0  0  0  0  0  0
   11.1623   -2.4618   18.9293 C   0  0  0  0  0  0  0  0  0  0  0  0
   10.5580   -3.1914   21.1063 C   0  0  0  0  0  0  0  0  0  0  0  0
    9.0472   -5.4478   18.6259 C   0  0  0  0  0  0  0  0  0  0  0  0
    8.8531   -5.5826   17.3028 C   0  0  0  0  0  0  0  0  0  0  0  0
  1 10  1  0
  1 17  2  0
  1 29  1  0
  2  8  4  0
  2 23  4  0
  3 12  4  0
  3 28  4  0
  3 33  4  0
  4 13  4  0
  4 16  4  0
  4 18  4  0
  5  6  4  0
  5 15  4  0
  6 16  4  0
  6 17  1  0
  7 24  4  0
  7 27  4  0
  8 30  4  0
  9 20  1  0
  9 29  1  0
 10 16  1  0
 11 21  1  0
 11 29  1  0
 12 25  4  0
 12 31  4  0
 13 15  4  0
 13 27  4  0
 13 32  3  0
 14 25  4  0
 14 34  4  0
 18 24  4  0
 19 26  4  0
 19 30  4  0
 19 32  1  0
 20 21  1  0
 20 34  1  0
 22 31  4  0
 22 32  4  0
 23 26  4  0
 28 32  4  0
 33 34  4  0
M  END
$$$$

 Created by Python create_sdf_string function

 34 40  0  0  0  0  0  0  0  0999 V2000
    5.1265   -8.7578   17.0152 C   0  0  0  0  0  0  0  0  0  0  0  0
   10.1440   -2.4684   25.2565 C   0  0  0  0  0  0  0  0  0  0  0  0
    9.8132   -4.4564   19.1994 C   0  0  0  0  0  0  0  0  0  0  0  0
    1.9023  -10.2484   16.8050 C   0  0  0  0  0  0  0  0  0  0  0  0
    3.2772  -11.0307   18.9401 C   0  0  0  0  0  0  0  0  0  0  0  0
    3.8099  -10.1643   18.0993 C   0  0  0  0  0  0  0  0  0  0  0  0
   -0.5580  -11.1306   16.3811 N   0  0  0  0  0  0  0  0  0  0  0  0
   10.3670   -3.7852   24.7889 C   0  0  0  0  0  0  0  0  0  0  0  0
    6.9050   -7.0221   17.5615 C   0  0  0  0  0  0  0  0  0  0  0  0
    4.0089   -8.9881   16.3216 N   0  0  0  0  0  0  0  0  0  0  0  0
    6.8484   -7.9719   15.4761 C   0  0  0  0  0  0  0  0  0  0  0  0
   10.4711   -3.5164   18.3830 C   0  0  0  0  0  0  0  0  0  0  0  0
    1.3342  -11.1279   17.7109 C   0  0  0  0  0  0  0  0  0  0  0  0
    9.5588   -4.7021   16.5295 C   0  0  0  0  0  0  0  0  0  0  0  0
    2.0837  -11.5096   18.8030 N   0  0  0  0  0  0  0  0  0  0  0  0
    3.1481   -9.8206   17.0384 C   0  0  0  0  0  0  0  0  0  0  0  0
    5.0107   -9.4467   18.0529 N   0  0  0  0  0  0  0  0  0  0  0  0
    1.2526   -9.8111   15.6934 C   0  0  0  0  0  0  0  0  0  0  0  0
   10.4719   -2.9350   22.5473 C   0  0  0  0  0  0  0  0  0  0  0  0
    7.9681   -6.4653   16.8157 N   0  0  0  0  0  0  0  0  0  0  0  0
    7.9897   -7.0398   15.5048 C   0  0  0  0  0  0  0  0  0  0  0  0
   11.1964   -2.2700   20.2333 C   0  0  0  0  0  0  0  0  0  0  0  0
   10.1340   -1.3804   24.3481 C   0  0  0  0  0  0  0  0  0  0  0  0
    0.0100  -10.2664   15.5148 C   0  0  0  0  0  0  0  0  0  0  0  0
   10.3180   -3.7335   17.0492 C   0  0  0  0  0  0  0  0  0  0  0  0
   10.3345   -1.6168   23.0011 C   0  0  0  0  0  0  0  0  0  0  0  0
    0.0746  -11.5565   17.4458 C   0  0  0  0  0  0  0  0  0  0  0  0
    9.9711   -4.2821   20.5526 C   0  0  0  0  0  0  0  0  0  0  0  0
    6.1908   -7.8858   16.7265 C   0  0  0  0  0  0  0  0  0  0  0  0
   10.4922   -4.0069   23.4363 C   0  0  0  0  0  0  0  0  0  0  0  0
   11.1723   -2.4633   18.9191 C   0  0  0  0  0  0  0  0  0  0  0  0
   10.5645   -3.1758   21.1087 C   0  0  0  0  0  0  0  0  0  0  0  0
    9.0393   -5.4512   18.6324 C   0  0  0  0  0  0  0  0  0  0  0  0
    8.8465   -5.5810   17.3020 C   0  0  0  0  0  0  0  0  0  0  0  0
  1 10  1  0
  1 17  2  0
  1 29  1  0
  2  8  4  0
  2 23  4  0
  3 12  4  0
  3 28  4  0
  3 33  4  0
  4 13  4  0
  4 16  4  0
  4 18  4  0
  5  6  4  0
  5 15  4  0
  6 16  4  0
  6 17  1  0
  7 24  4  0
  7 27  4  0
  8 30  4  0
  9 20  1  0
  9 29  1  0
 10 16  1  0
 11 21  1  0
 11 29  1  0
 12 25  4  0
 12 31  4  0
 13 15  4  0
 13 27  4  0
 14 25  4  0
 14 34  4  0
 18 24  4  0
 19 26  4  0
 19 30  4  0
 19 32  1  0
 20 21  1  0
 20 34  1  0
 22 31  4  0
 22 32  4  0
 23 26  4  0
 28 32  4  0
 33 34  4  0
M  END
$$$$

 Created by Python create_sdf_string function

 34 40  0  0  0  0  0  0  0  0999 V2000
    5.1101   -8.7576   17.0235 C   0  0  0  0  0  0  0  0  0  0  0  0
   10.1381   -2.4783   25.2613 C   0  0  0  0  0  0  0  0  0  0  0  0
    9.8124   -4.4562   19.2042 C   0  0  0  0  0  0  0  0  0  0  0  0
    1.9028  -10.2461   16.8038 C   0  0  0  0  0  0  0  0  0  0  0  0
    3.2729  -11.0139   18.9408 C   0  0  0  0  0  0  0  0  0  0  0  0
    3.8010  -10.1534   18.0960 C   0  0  0  0  0  0  0  0  0  0  0  0
   -0.5582  -11.1352   16.3870 N   0  0  0  0  0  0  0  0  0  0  0  0
   10.3608   -3.7768   24.7797 C   0  0  0  0  0  0  0  0  0  0  0  0
    6.9004   -7.0219   17.5582 C   0  0  0  0  0  0  0  0  0  0  0  0
    4.0025   -8.9978   16.3149 N   0  0  0  0  0  0  0  0  0  0  0  0
    6.8388   -7.9742   15.4870 C   0  0  0  0  0  0  0  0  0  0  0  0
   10.4778   -3.5239   18.3896 C   0  0  0  0  0  0  0  0  0  0  0  0
    1.3370  -11.1310   17.7040 C   0  0  0  0  0  0  0  0  0  0  0  0
    9.5472   -4.7057   16.5269 C   0  0  0  0  0  0  0  0  0  0  0  0
    2.0720  -11.5252   18.8002 N   0  0  0  0  0  0  0  0  0  0  0  0
    3.1421   -9.8266   17.0338 C   0  0  0  0  0  0  0  0  0  0  0  0
    5.0173   -9.4359   18.0511 N   0  0  0  0  0  0  0  0  0  0  0  0
    1.2482   -9.8070   15.7023 C   0  0  0  0  0  0  0  0  0  0  0  0
   10.4599   -2.9513   22.5547 C   0  0  0  0  0  0  0  0  0  0  0  0
    7.9553   -6.4684   16.8097 N   0  0  0  0  0  0  0  0  0  0  0  0
    7.9921   -7.0445   15.5109 C   0  0  0  0  0  0  0  0  0  0  0  0
   11.1919   -2.2504   20.2342 C   0  0  0  0  0  0  0  0  0  0  0  0
   10.1471   -1.3771   24.3439 C   0  0  0  0  0  0  0  0  0  0  0  0
   -0.0062  -10.2516   15.5168 C   0  0  0  0  0  0  0  0  0  0  0  0
   10.3172   -3.7184   17.0509 C   0  0  0  0  0  0  0  0  0  0  0  0
   10.3288   -1.6078   23.0094 I   0  0  0  0  0  0  0  0  0  0  0  0
    0.0795  -11.5615   17.4578 C   0  0  0  0  0  0  0  0  0  0  0  0
    9.9876   -4.2771   20.5452 C   0  0  0  0  0  0  0  0  0  0  0  0
    6.1957   -7.8860   16.7339 C   0  0  0  0  0  0  0  0  0  0  0  0
   10.4973   -4.0173   23.4453 C   0  0  0  0  0  0  0  0  0  0  0  0
   11.1704   -2.4730   18.9064 C   0  0  0  0  0  0  0  0  0  0  0  0
   10.5562   -3.1719   21.0953 C   0  0  0  0  0  0  0  0  0  0  0  0
    9.0408   -5.4515   18.6286 C   0  0  0  0  0  0  0  0  0  0  0  0
    8.8315   -5.5736   17.3026 C   0  0  0  0  0  0  0  0  0  0  0  0
  1 10  1  0
  1 17  2  0
  1 29  1  0
  2  8  4  0
  2 23  4  0
  3 12  4  0
  3 28  4  0
  3 33  4  0
  4 13  4  0
  4 16  4  0
  4 18  4  0
  5  6  4  0
  5 15  4  0
  6 16  4  0
  6 17  1  0
  7 24  4  0
  7 27  4  0
  8 30  4  0
  9 20  1  0
  9 29  1  0
 10 16  1  0
 11 21  1  0
 11 29  1  0
 12 25  4  0
 12 31  4  0
 13 15  4  0
 13 27  4  0
 14 25  4  0
 14 34  4  0
 18 24  4  0
 19 26  4  0
 19 30  4  0
 19 32  1  0
 20 21  1  0
 20 34  1  0
 22 31  4  0
 22 32  4  0
 23 26  4  0
 28 32  4  0
 33 34  4  0
M  END
$$$$

 Created by Python create_sdf_string function

 34 40  0  0  0  0  0  0  0  0999 V2000
    5.1139   -8.7649   17.0306 C   0  0  0  0  0  0  0  0  0  0  0  0
   10.1490   -2.4764   25.2505 C   0  0  0  0  0  0  0  0  0  0  0  0
    9.8197   -4.4575   19.1995 C   0  0  0  0  0  0  0  0  0  0  0  0
    1.9007  -10.2587   16.8228 C   0  0  0  0  0  0  0  0  0  0  0  0
    3.2722  -11.0328   18.9598 C   0  0  0  0  0  0  0  0  0  0  0  0
    3.8077  -10.1674   18.1191 C   0  0  0  0  0  0  0  0  0  0  0  0
   -0.5602  -11.1414   16.3973 N   0  0  0  0  0  0  0  0  0  0  0  0
   10.3569   -3.7841   24.7815 C   0  0  0  0  0  0  0  0  0  0  0  0
    6.9104   -7.0247   17.5780 C   0  0  0  0  0  0  0  0  0  0  0  0
    3.9860   -8.9963   16.3337 N   0  0  0  0  0  0  0  0  0  0  0  0
    6.8201   -7.9685   15.5107 C   0  0  0  0  0  0  0  0  0  0  0  0
   10.4768   -3.5164   18.3796 C   0  0  0  0  0  0  0  0  0  0  0  0
    1.3352  -11.1412   17.7243 C   0  0  0  0  0  0  0  0  0  0  0  0
    9.5504   -4.7048   16.5369 C   0  0  0  0  0  0  0  0  0  0  0  0
    2.0816  -11.5239   18.8155 N   0  0  0  0  0  0  0  0  0  0  0  0
    3.1427   -9.8305   17.0595 C   0  0  0  0  0  0  0  0  0  0  0  0
    5.0033   -9.4450   18.0635 N   0  0  0  0  0  0  0  0  0  0  0  0
    1.2492   -9.8161   15.7151 C   0  0  0  0  0  0  0  0  0  0  0  0
   10.4748   -2.9389   22.5409 C   0  0  0  0  0  0  0  0  0  0  0  0
    7.9579   -6.4746   16.8274 N   0  0  0  0  0  0  0  0  0  0  0  0
    7.9793   -7.0392   15.5198 C   0  0  0  0  0  0  0  0  0  0  0  0
   11.1932   -2.2606   20.2240 C   0  0  0  0  0  0  0  0  0  0  0  0
   10.1503   -1.3878   24.3547 C   0  0  0  0  0  0  0  0  0  0  0  0
    0.0071  -10.2699   15.5355 C   0  0  0  0  0  0  0  0  0  0  0  0
   10.3118   -3.7374   17.0425 C   0  0  0  0  0  0  0  0  0  0  0  0
   10.3531   -1.6208   22.9906 C   0  0  0  0  0  0  0  0  0  0  0  0
    0.0773  -11.5695   17.4635 C   0  0  0  0  0  0  0  0  0  0  0  0
    9.9828   -4.2812   20.5512 C   0  0  0  0  0  0  0  0  0  0  0  0
    6.1964   -7.9011   16.7663 C   0  0  0  0  0  0  0  0  0  0  0  0
   10.4900   -4.0114   23.4352 C   0  0  0  0  0  0  0  0  0  0  0  0
   11.1805   -2.4636   18.9101 C   0  0  0  0  0  0  0  0  0  0  0  0
   10.5679   -3.1649   21.1009 C   0  0  0  0  0  0  0  0  0  0  0  0
    9.0383   -5.4519   18.6348 C   0  0  0  0  0  0  0  0  0  0  0  0
    8.8311   -5.5855   17.3048 C   0  0  0  0  0  0  0  0  0  0  0  0
  1 10  1  0
  1 17  2  0
  1 29  1  0
  2  8  4  0
  2 23  4  0
  3 12  4  0
  3 28  4  0
  3 33  4  0
  4 13  4  0
  4 16  4  0
  4 18  4  0
  5  6  4  0
  5 15  4  0
  6 16  4  0
  6 17  1  0
  7 24  4  0
  7 27  4  0
  8 30  4  0
  9 20  1  0
  9 29  1  0
 10 16  1  0
 11 21  1  0
 11 29  1  0
 12 25  4  0
 12 31  4  0
 13 15  4  0
 13 27  4  0
 14 25  4  0
 14 34  4  0
 18 24  4  0
 19 26  4  0
 19 30  4  0
 19 32  1  0
 20 21  1  0
 20 34  1  0
 22 31  4  0
 22 32  4  0
 23 26  4  0
 28 32  4  0
 33 34  4  0
M  END
$$$$

 Created by Python create_sdf_string function

 34 40  0  0  0  0  0  0  0  0999 V2000
    5.1187   -8.7641   17.0269 C   0  0  0  0  0  0  0  0  0  0  0  0
   10.1497   -2.4780   25.2552 C   0  0  0  0  0  0  0  0  0  0  0  0
    9.8151   -4.4568   19.1908 C   0  0  0  0  0  0  0  0  0  0  0  0
    1.9034  -10.2589   16.8245 C   0  0  0  0  0  0  0  0  0  0  0  0
    3.2691  -11.0239   18.9560 C   0  0  0  0  0  0  0  0  0  0  0  0
    3.8107  -10.1727   18.1215 C   0  0  0  0  0  0  0  0  0  0  0  0
   -0.5599  -11.1463   16.4046 N   0  0  0  0  0  0  0  0  0  0  0  0
   10.3573   -3.7856   24.7776 C   0  0  0  0  0  0  0  0  0  0  0  0
    6.9111   -7.0253   17.5810 C   0  0  0  0  0  0  0  0  0  0  0  0
    3.9862   -9.0007   16.3358 N   0  0  0  0  0  0  0  0  0  0  0  0
    6.8187   -7.9658   15.5081 C   0  0  0  0  0  0  0  0  0  0  0  0
   10.4794   -3.5195   18.3810 C   0  0  0  0  0  0  0  0  0  0  0  0
    1.3393  -11.1421   17.7302 C   0  0  0  0  0  0  0  0  0  0  0  0
    9.5526   -4.7026   16.5349 C   0  0  0  0  0  0  0  0  0  0  0  0
    2.0810  -11.5172   18.8075 N   0  0  0  0  0  0  0  0  0  0  0  0
    3.1414   -9.8307   17.0638 C   0  0  0  0  0  0  0  0  0  0  0  0
    5.0018   -9.4430   18.0651 N   0  0  0  0  0  0  0  0  0  0  0  0
    1.2420   -9.8187   15.7125 C   0  0  0  0  0  0  0  0  0  0  0  0
   10.4772   -2.9430   22.5437 C   0  0  0  0  0  0  0  0  0  0  0  0
    7.9527   -6.4777   16.8355 N   0  0  0  0  0  0  0  0  0  0  0  0
    7.9768   -7.0415   15.5237 C   0  0  0  0  0  0  0  0  0  0  0  0
   11.1876   -2.2674   20.2288 C   0  0  0  0  0  0  0  0  0  0  0  0
   10.1499   -1.3846   24.3571 C   0  0  0  0  0  0  0  0  0  0  0  0
    0.0167  -10.2721   15.5341 C   0  0  0  0  0  0  0  0  0  0  0  0
   10.3183   -3.7368   17.0362 C   0  0  0  0  0  0  0  0  0  0  0  0
   10.3520   -1.6229   22.9941 C   0  0  0  0  0  0  0  0  0  0  0  0
    0.0694  -11.5714   17.4656 C   0  0  0  0  0  0  0  0  0  0  0  0
    9.9866   -4.2798   20.5435 C   0  0  0  0  0  0  0  0  0  0  0  0
    6.2013   -7.9024   16.7638 C   0  0  0  0  0  0  0  0  0  0  0  0
   10.4877   -4.0160   23.4278 C   0  0  0  0  0  0  0  0  0  0  0  0
   11.1752   -2.4748   18.9092 C   0  0  0  0  0  0  0  0  0  0  0  0
   10.5690   -3.1611   21.1018 C   0  0  0  0  0  0  0  0  0  0  0  0
    9.0393   -5.4532   18.6391 C   0  0  0  0  0  0  0  0  0  0  0  0
    8.8284   -5.5915   17.3002 C   0  0  0  0  0  0  0  0  0  0  0  0
  1 10  1  0
  1 17  2  0
  1 29  1  0
  2  8  4  0
  2 23  4  0
  3 12  4  0
  3 28  4  0
  3 33  4  0
  4 13  4  0
  4 16  4  0
  4 18  4  0
  5  6  4  0
  5 15  4  0
  6 16  4  0
  6 17  1  0
  7 24  4  0
  7 27  4  0
  8 30  4  0
  9 20  1  0
  9 29  1  0
 10 16  1  0
 11 21  1  0
 11 29  1  0
 12 25  4  0
 12 31  4  0
 13 15  4  0
 13 27  4  0
 14 25  4  0
 14 34  4  0
 18 24  4  0
 19 26  4  0
 19 30  4  0
 19 32  1  0
 20 21  1  0
 20 34  1  0
 22 31  4  0
 22 32  4  0
 23 26  4  0
 28 32  4  0
 33 34  4  0
M  END
$$$$

 Created by Python create_sdf_string function

 34 40  0  0  0  0  0  0  0  0999 V2000
    5.1104   -8.7753   17.0502 C   0  0  0  0  0  0  0  0  0  0  0  0
   10.1571   -2.4825   25.2539 C   0  0  0  0  0  0  0  0  0  0  0  0
    9.8205   -4.4589   19.1958 C   0  0  0  0  0  0  0  0  0  0  0  0
    1.8991  -10.2707   16.8442 C   0  0  0  0  0  0  0  0  0  0  0  0
    3.2720  -11.0432   18.9775 C   0  0  0  0  0  0  0  0  0  0  0  0
    3.8074  -10.1774   18.1381 C   0  0  0  0  0  0  0  0  0  0  0  0
   -0.5538  -11.1508   16.4116 N   0  0  0  0  0  0  0  0  0  0  0  0
   10.3544   -3.7949   24.7798 C   0  0  0  0  0  0  0  0  0  0  0  0
    6.9203   -7.0324   17.6002 C   0  0  0  0  0  0  0  0  0  0  0  0
    3.9744   -9.0064   16.3621 N   0  0  0  0  0  0  0  0  0  0  0  0
    6.7991   -7.9622   15.5341 C   0  0  0  0  0  0  0  0  0  0  0  0
   10.4796   -3.5189   18.3756 C   0  0  0  0  0  0  0  0  0  0  0  0
    1.3355  -11.1502   17.7425 C   0  0  0  0  0  0  0  0  0  0  0  0
    9.5490   -4.7143   16.5358 C   0  0  0  0  0  0  0  0  0  0  0  0
    2.0844  -11.5283   18.8315 N   0  0  0  0  0  0  0  0  0  0  0  0
    3.1411   -9.8390   17.0824 C   0  0  0  0  0  0  0  0  0  0  0  0
    4.9984   -9.4550   18.0796 N   0  0  0  0  0  0  0  0  0  0  0  0
    1.2513   -9.8315   15.7350 C   0  0  0  0  0  0  0  0  0  0  0  0
   10.4833   -2.9319   22.5443 C   0  0  0  0  0  0  0  0  0  0  0  0
    7.9585   -6.4830   16.8446 N   0  0  0  0  0  0  0  0  0  0  0  0
    7.9664   -7.0352   15.5329 C   0  0  0  0  0  0  0  0  0  0  0  0
   11.1956   -2.2648   20.2206 C   0  0  0  0  0  0  0  0  0  0  0  0
   10.1584   -1.3855   24.3582 C   0  0  0  0  0  0  0  0  0  0  0  0
    0.0189  -10.2891   15.5510 C   0  0  0  0  0  0  0  0  0  0  0  0
   10.3172   -3.7431   17.0339 C   0  0  0  0  0  0  0  0  0  0  0  0
   10.3712   -1.6126   23.0064 C   0  0  0  0  0  0  0  0  0  0  0  0
    0.0767  -11.5782   17.4779 C   0  0  0  0  0  0  0  0  0  0  0  0
    9.9866   -4.2805   20.5459 C   0  0  0  0  0  0  0  0  0  0  0  0
    6.2021   -7.9149   16.7984 C   0  0  0  0  0  0  0  0  0  0  0  0
   10.4821   -4.0140   23.4268 C   0  0  0  0  0  0  0  0  0  0  0  0
   11.1809   -2.4698   18.9134 C   0  0  0  0  0  0  0  0  0  0  0  0
   10.5744   -3.1636   21.1068 C   0  0  0  0  0  0  0  0  0  0  0  0
    9.0366   -5.4528   18.6405 C   0  0  0  0  0  0  0  0  0  0  0  0
    8.8282   -5.5947   17.3125 C   0  0  0  0  0  0  0  0  0  0  0  0
  1 10  1  0
  1 17  2  0
  1 29  1  0
  2  8  4  0
  2 23  4  0
  3 12  4  0
  3 28  4  0
  3 33  4  0
  4 13  4  0
  4 16  4  0
  4 18  4  0
  5  6  4  0
  5 15  4  0
  6 16  4  0
  6 17  1  0
  7 24  4  0
  7 27  4  0
  8 30  4  0
  9 20  1  0
  9 29  1  0
 10 16  1  0
 11 21  1  0
 11 29  1  0
 12 25  4  0
 12 31  4  0
 13 15  4  0
 13 27  4  0
 14 25  4  0
 14 34  4  0
 18 24  4  0
 19 26  4  0
 19 30  4  0
 19 32  1  0
 20 21  1  0
 20 34  1  0
 22 31  4  0
 22 32  4  0
 23 26  4  0
 28 32  4  0
 33 34  4  0
M  END
$$$$

 Created by Python create_sdf_string function

 34 40  0  0  0  0  0  0  0  0999 V2000
    5.1104   -8.7753   17.0502 C   0  0  0  0  0  0  0  0  0  0  0  0
   10.1571   -2.4825   25.2539 C   0  0  0  0  0  0  0  0  0  0  0  0
    9.8205   -4.4589   19.1958 C   0  0  0  0  0  0  0  0  0  0  0  0
    1.8991  -10.2707   16.8442 C   0  0  0  0  0  0  0  0  0  0  0  0
    3.2720  -11.0432   18.9775 C   0  0  0  0  0  0  0  0  0  0  0  0
    3.8074  -10.1774   18.1381 C   0  0  0  0  0  0  0  0  0  0  0  0
   -0.5538  -11.1508   16.4116 N   0  0  0  0  0  0  0  0  0  0  0  0
   10.3544   -3.7949   24.7798 C   0  0  0  0  0  0  0  0  0  0  0  0
    6.9203   -7.0324   17.6002 C   0  0  0  0  0  0  0  0  0  0  0  0
    3.9744   -9.0064   16.3621 N   0  0  0  0  0  0  0  0  0  0  0  0
    6.7991   -7.9622   15.5341 C   0  0  0  0  0  0  0  0  0  0  0  0
   10.4796   -3.5189   18.3756 C   0  0  0  0  0  0  0  0  0  0  0  0
    1.3355  -11.1502   17.7425 C   0  0  0  0  0  0  0  0  0  0  0  0
    9.5490   -4.7143   16.5358 C   0  0  0  0  0  0  0  0  0  0  0  0
    2.0844  -11.5283   18.8315 N   0  0  0  0  0  0  0  0  0  0  0  0
    3.1411   -9.8390   17.0824 C   0  0  0  0  0  0  0  0  0  0  0  0
    4.9984   -9.4550   18.0796 N   0  0  0  0  0  0  0  0  0  0  0  0
    1.2513   -9.8315   15.7350 C   0  0  0  0  0  0  0  0  0  0  0  0
   10.4833   -2.9319   22.5443 C   0  0  0  0  0  0  0  0  0  0  0  0
    7.9585   -6.4830   16.8446 N   0  0  0  0  0  0  0  0  0  0  0  0
    7.9664   -7.0352   15.5329 C   0  0  0  0  0  0  0  0  0  0  0  0
   11.1956   -2.2648   20.2206 C   0  0  0  0  0  0  0  0  0  0  0  0
   10.1584   -1.3855   24.3582 C   0  0  0  0  0  0  0  0  0  0  0  0
    0.0189  -10.2891   15.5510 C   0  0  0  0  0  0  0  0  0  0  0  0
   10.3172   -3.7431   17.0339 C   0  0  0  0  0  0  0  0  0  0  0  0
   10.3712   -1.6126   23.0064 C   0  0  0  0  0  0  0  0  0  0  0  0
    0.0767  -11.5782   17.4779 C   0  0  0  0  0  0  0  0  0  0  0  0
    9.9866   -4.2805   20.5459 C   0  0  0  0  0  0  0  0  0  0  0  0
    6.2021   -7.9149   16.7984 C   0  0  0  0  0  0  0  0  0  0  0  0
   10.4821   -4.0140   23.4268 C   0  0  0  0  0  0  0  0  0  0  0  0
   11.1809   -2.4698   18.9134 C   0  0  0  0  0  0  0  0  0  0  0  0
   10.5744   -3.1636   21.1068 C   0  0  0  0  0  0  0  0  0  0  0  0
    9.0366   -5.4528   18.6405 C   0  0  0  0  0  0  0  0  0  0  0  0
    8.8282   -5.5947   17.3125 C   0  0  0  0  0  0  0  0  0  0  0  0
  1 10  1  0
  1 17  2  0
  1 29  1  0
  2  8  4  0
  2 23  4  0
  3 12  4  0
  3 28  4  0
  3 33  4  0
  4 13  4  0
  4 16  4  0
  4 18  4  0
  5  6  4  0
  5 15  4  0
  6 16  4  0
  6 17  1  0
  7 24  4  0
  7 27  4  0
  8 30  4  0
  9 20  1  0
  9 29  1  0
 10 16  1  0
 11 21  1  0
 11 29  1  0
 12 25  4  0
 12 31  4  0
 13 15  4  0
 13 27  4  0
 14 25  4  0
 14 34  4  0
 18 24  4  0
 19 26  4  0
 19 30  4  0
 19 32  1  0
 20 21  1  0
 20 34  1  0
 22 31  4  0
 22 32  4  0
 23 26  4  0
 28 32  4  0
 33 34  4  0
M  END
$$$$

 Created by Python create_sdf_string function

 34 58  0  0  0  0  0  0  0  0999 V2000
    7.8306   -9.3345   17.7447 N   0  0  0  0  0  0  0  0  0  0  0  0
   10.3067   -2.4638   25.4069 C   0  0  0  0  0  0  0  0  0  0  0  0
    8.2040   -9.4767   15.8017 F   0  0  0  0  0  0  0  0  0  0  0  0
    7.4655   -7.5561   16.2882 O   0  0  0  0  0  0  0  0  0  0  0  0
    8.3442   -9.7172   17.1511 C   0  0  0  0  0  0  0  0  0  0  0  0
   -0.5304  -11.0534   16.2896 N   0  0  0  0  0  0  0  0  0  0  0  0
    9.5923   -4.2370   25.2385 C   0  0  0  0  0  0  0  0  0  0  0  0
    6.6137   -6.4973   16.9401 C   0  0  0  0  0  0  0  0  0  0  0  0
    6.2683   -8.3724   15.2776 C   0  0  0  0  0  0  0  0  0  0  0  0
    7.9109   -6.7654   16.4008 F   0  0  0  0  0  0  0  0  0  0  0  0
    8.9437   -4.8398   16.1382 C   0  0  0  0  0  0  0  0  0  0  0  0
    6.5683   -9.0747   18.2134 F   0  0  0  0  0  0  0  0  0  0  0  0
    6.1403   -7.9466   17.2048 F   0  0  0  0  0  0  0  0  0  0  0  0
    8.1508   -7.1011   14.9236 C   0  0  0  0  0  0  0  0  0  0  0  0
    9.8082   -1.6668   24.7539 C   0  0  0  0  0  0  0  0  0  0  0  0
    0.1202  -10.1660   15.6730 C   0  0  0  0  0  0  0  0  0  0  0  0
   10.3188   -2.5533   23.2177 C   0  0  0  0  0  0  0  0  0  0  0  0
   -0.1822  -10.8848   17.1259 C   0  0  0  0  0  0  0  0  0  0  0  0
    5.8016   -8.8571   16.8678 C   0  0  0  0  0  0  0  0  0  0  0  0
    8.8561   -9.7528   17.1801 C   0  0  0  0  0  0  0  0  0  0  0  0
    6.8247   -9.5972   18.3405 N   0  0  0  0  0  0  0  0  0  0  0  0
    7.5971   -9.7188   16.3514 He  0  0  0  0  0  0  0  0  0  0  0  0
    6.1375   -9.6352   15.7704 He  0  0  0  0  0  0  0  0  0  0  0  0
    6.8099   -9.5471   15.8188 He  0  0  0  0  0  0  0  0  0  0  0  0
    7.1830   -6.9047   18.3187 He  0  0  0  0  0  0  0  0  0  0  0  0
    6.6682   -7.4420   15.6953 He  0  0  0  0  0  0  0  0  0  0  0  0
    9.0128   -9.0440   17.0361 He  0  0  0  0  0  0  0  0  0  0  0  0
    8.4177   -6.4267   17.4517 He  0  0  0  0  0  0  0  0  0  0  0  0
    7.6567   -7.7875   18.4032 He  0  0  0  0  0  0  0  0  0  0  0  0
    9.3379   -6.5407   18.0628 He  0  0  0  0  0  0  0  0  0  0  0  0
    8.1334   -9.8873   17.4529 He  0  0  0  0  0  0  0  0  0  0  0  0
    6.4280   -9.6491   16.2354 He  0  0  0  0  0  0  0  0  0  0  0  0
    8.7283   -8.3936   16.4704 He  0  0  0  0  0  0  0  0  0  0  0  0
    8.4548   -5.2141   17.2163 He  0  0  0  0  0  0  0  0  0  0  0  0
  1  7  2  0
  1  8  1  0
  1 10  3  0
  1 13  3  0
  1 17  3  0
  1 20  2  0
  1 21  3  0
  2  3  4  0
  2  5  4  0
  2  7  4  0
  2 13  3  0
  2 17  1  0
  2 18  1  0
  3  6  3  0
  3  7  1  0
  3  8  3  0
  3 15  3  0
  3 16  2  0
  3 19  4  0
  3 21  1  0
  4  9  2  0
  4 12  2  0
  4 13  4  0
  4 17  1  0
  4 19  2  0
  5 14  4  0
  6 12  2  0
  6 14  4  0
  6 16  2  0
  6 18  4  0
  6 20  2  0
  7 12  3  0
  7 13  3  0
  7 16  1  0
  8 12  1  0
  8 13  2  0
  8 14  4  0
  8 15  1  0
  8 16  4  0
  8 19  1  0
  8 21  4  0
  9 11  1  0
  9 14  1  0
  9 16  1  0
  9 19  1  0
 10 14  2  0
 10 15  3  0
 10 19  3  0
 10 20  4  0
 11 12  4  0
 11 13  2  0
 11 20  2  0
 13 16  2  0
 15 21  4  0
 18 19  2  0
 18 20  4  0
 18 21  1  0
 19 20  1  0
M  END
$$$$

 Created by Python create_sdf_string function

 34  9  0  0  0  0  0  0  0  0999 V2000
    7.6696   -8.4485   18.0414 F   0  0  0  0  0  0  0  0  0  0  0  0
   10.2776   -2.7298   25.1146 C   0  0  0  0  0  0  0  0  0  0  0  0
    7.9260   -8.8953   15.5446 F   0  0  0  0  0  0  0  0  0  0  0  0
    6.8463   -9.4003   16.2829 F   0  0  0  0  0  0  0  0  0  0  0  0
    7.2268   -6.9426   15.9929 F   0  0  0  0  0  0  0  0  0  0  0  0
    8.1600   -8.7995   17.3727 F   0  0  0  0  0  0  0  0  0  0  0  0
    0.6191  -10.4131   16.3100 C   0  0  0  0  0  0  0  0  0  0  0  0
   10.0130   -3.6041   25.0493 C   0  0  0  0  0  0  0  0  0  0  0  0
    6.8459   -6.6764   17.0958 F   0  0  0  0  0  0  0  0  0  0  0  0
    3.8042   -9.4069   16.0383 C   0  0  0  0  0  0  0  0  0  0  0  0
    5.2757   -8.3697   15.2021 F   0  0  0  0  0  0  0  0  0  0  0  0
    8.1833   -6.0023   16.3441 F   0  0  0  0  0  0  0  0  0  0  0  0
    5.6683   -9.4849   15.7040 F   0  0  0  0  0  0  0  0  0  0  0  0
    9.0413   -4.5425   16.1106 F   0  0  0  0  0  0  0  0  0  0  0  0
    7.6076   -6.4650   18.4471 F   0  0  0  0  0  0  0  0  0  0  0  0
    5.7744   -8.9260   18.2917 F   0  0  0  0  0  0  0  0  0  0  0  0
    6.2244   -6.9590   15.5277 F   0  0  0  0  0  0  0  0  0  0  0  0
    9.0429   -8.2448   17.4036 F   0  0  0  0  0  0  0  0  0  0  0  0
    5.1549   -7.7158   17.2186 F   0  0  0  0  0  0  0  0  0  0  0  0
    8.7850   -5.7734   17.8265 C   0  0  0  0  0  0  0  0  0  0  0  0
    7.9118   -6.9290   15.3268 F   0  0  0  0  0  0  0  0  0  0  0  0
    8.1548   -7.5357   18.4587 F   0  0  0  0  0  0  0  0  0  0  0  0
    9.6354   -1.5123   24.4431 C   0  0  0  0  0  0  0  0  0  0  0  0
    1.3446   -9.8379   16.1556 C   0  0  0  0  0  0  0  0  0  0  0  0
    9.4469   -6.1955   18.7114 F   0  0  0  0  0  0  0  0  0  0  0  0
   10.2461   -2.8455   23.4075 C   0  0  0  0  0  0  0  0  0  0  0  0
    1.0796  -10.2721   16.9527 C   0  0  0  0  0  0  0  0  0  0  0  0
    7.9395   -9.0748   17.5272 F   0  0  0  0  0  0  0  0  0  0  0  0
    3.9208   -8.9643   16.7836 C   0  0  0  0  0  0  0  0  0  0  0  0
    4.6492   -9.4554   16.3471 C   0  0  0  0  0  0  0  0  0  0  0  0
    8.7897   -8.7516   17.4092 F   0  0  0  0  0  0  0  0  0  0  0  0
    6.0283   -9.0616   18.3020 F   0  0  0  0  0  0  0  0  0  0  0  0
    8.6488   -7.6794   16.7836 F   0  0  0  0  0  0  0  0  0  0  0  0
    9.1901   -4.8282   17.6119 F   0  0  0  0  0  0  0  0  0  0  0  0
  2  8  1  0
  2 23  1  0
  2 26  1  0
  7 24  1  0
  7 27  1  0
 16 32  1  0
 20 34  1  0
 23 26  1  0
 24 27  1  0
M  END
$$$$

 Created by Python create_sdf_string function

 34 50  0  0  0  0  0  0  0  0999 V2000
    9.4012   -8.5111   17.3063 Cl  0  0  0  0  0  0  0  0  0  0  0  0
    5.8719   -7.3362   15.2395 N   0  0  0  0  0  0  0  0  0  0  0  0
    9.2580   -8.5186   18.4363 O   0  0  0  0  0  0  0  0  0  0  0  0
   10.0358   -3.6595   25.0987 C   0  0  0  0  0  0  0  0  0  0  0  0
    6.8627   -6.4208   17.5127 F   0  0  0  0  0  0  0  0  0  0  0  0
    2.9339  -10.2816   14.3506 I   0  0  0  0  0  0  0  0  0  0  0  0
    5.5292   -8.3603   15.4156 F   0  0  0  0  0  0  0  0  0  0  0  0
    7.6852   -5.2883   17.4539 N   0  0  0  0  0  0  0  0  0  0  0  0
    5.0771  -11.3571   15.2617 I   0  0  0  0  0  0  0  0  0  0  0  0
    5.6233   -7.2275   16.7791 C   0  0  0  0  0  0  0  0  0  0  0  0
   10.0087   -7.8724   18.1752 C   0  0  0  0  0  0  0  0  0  0  0  0
    9.1539   -6.2158   17.6002 C   0  0  0  0  0  0  0  0  0  0  0  0
    7.1738   -7.3373   15.3851 F   0  0  0  0  0  0  0  0  0  0  0  0
    9.9555   -1.3699   24.0948 C   0  0  0  0  0  0  0  0  0  0  0  0
    1.5296  -11.2040   15.9373 N   0  0  0  0  0  0  0  0  0  0  0  0
   10.0696   -2.5785   22.9755 C   0  0  0  0  0  0  0  0  0  0  0  0
    1.4383  -10.2790   16.7123 C   0  0  0  0  0  0  0  0  0  0  0  0
    8.0760   -7.8931   15.9865 N   0  0  0  0  0  0  0  0  0  0  0  0
    3.6415   -9.2334   16.5644 S   0  0  0  0  0  0  0  0  0  0  0  0
    9.7230   -4.9965   17.9534 F   0  0  0  0  0  0  0  0  0  0  0  0
   10.5074   -2.5611   24.9842 He  0  0  0  0  0  0  0  0  0  0  0  0
    7.5591   -9.1815   16.4476 He  0  0  0  0  0  0  0  0  0  0  0  0
    5.7009   -7.8991   15.8651 He  0  0  0  0  0  0  0  0  0  0  0  0
    0.1256  -10.5766   16.4771 He  0  0  0  0  0  0  0  0  0  0  0  0
    8.5190   -4.2933   16.4045 He  0  0  0  0  0  0  0  0  0  0  0  0
    5.3648  -10.4891   17.0201 He  0  0  0  0  0  0  0  0  0  0  0  0
    5.6416   -7.7127   14.8312 He  0  0  0  0  0  0  0  0  0  0  0  0
    4.4575   -6.6914   17.9032 He  0  0  0  0  0  0  0  0  0  0  0  0
    9.4233   -6.6291   19.9108 He  0  0  0  0  0  0  0  0  0  0  0  0
    9.3058   -4.7598   19.3999 He  0  0  0  0  0  0  0  0  0  0  0  0
    5.2766  -11.0373   16.8911 He  0  0  0  0  0  0  0  0  0  0  0  0
    8.7866   -8.6112   16.6471 He  0  0  0  0  0  0  0  0  0  0  0  0
    6.8798   -9.4780   17.6797 He  0  0  0  0  0  0  0  0  0  0  0  0
    7.9689   -7.3697   16.1723 He  0  0  0  0  0  0  0  0  0  0  0  0
  1  4  1  0
  1  6  4  0
  1  8  4  0
  1  9  4  0
  1 11  3  0
  1 12  3  0
  1 13  2  0
  1 15  3  0
  2  4  4  0
  2  7  4  0
  2  9  3  0
  2 10  1  0
  2 15  1  0
  2 16  4  0
  2 18  1  0
  2 20  2  0
  3  4  1  0
  3  7  3  0
  3 15  3  0
  3 18  1  0
  4 10  4  0
  4 11  3  0
  4 14  4  0
  4 18  1  0
  5 13  3  0
  6 12  3  0
  6 13  2  0
  6 15  2  0
  6 18  2  0
  6 19  3  0
  7 10  4  0
  8 13  3  0
  8 15  1  0
  8 18  1  0
  9 11  4  0
  9 13  4  0
  9 17  2  0
  9 18  4  0
 10 13  4  0
 10 16  3  0
 11 12  2  0
 11 15  2  0
 11 17  2  0
 12 20  1  0
 15 17  1  0
 15 19  1  0
 16 17  3  0
 16 18  1  0
 17 20  1  0
 18 20  4  0
M  END
$$$$

 Created by Python create_sdf_string function

 34  9  0  0  0  0  0  0  0  0999 V2000
    9.1625   -7.9796   17.5296 F   0  0  0  0  0  0  0  0  0  0  0  0
   10.2626   -2.7969   23.9500 C   0  0  0  0  0  0  0  0  0  0  0  0
    7.2279   -8.9396   16.3302 F   0  0  0  0  0  0  0  0  0  0  0  0
    5.1547   -8.2267   16.0356 C   0  0  0  0  0  0  0  0  0  0  0  0
    5.5794   -7.2214   15.4490 F   0  0  0  0  0  0  0  0  0  0  0  0
    9.0605   -7.9875   18.2805 F   0  0  0  0  0  0  0  0  0  0  0  0
    0.6544  -10.2250   16.3029 C   0  0  0  0  0  0  0  0  0  0  0  0
   10.1186   -3.5441   24.9444 C   0  0  0  0  0  0  0  0  0  0  0  0
    6.9970   -6.7638   17.4887 F   0  0  0  0  0  0  0  0  0  0  0  0
    2.3686   -9.5332   15.1823 C   0  0  0  0  0  0  0  0  0  0  0  0
    4.9525   -8.6450   15.4719 F   0  0  0  0  0  0  0  0  0  0  0  0
    8.6101   -5.5457   17.0981 F   0  0  0  0  0  0  0  0  0  0  0  0
    5.3172  -10.3812   15.6002 F   0  0  0  0  0  0  0  0  0  0  0  0
    9.1138   -4.5833   16.4392 F   0  0  0  0  0  0  0  0  0  0  0  0
    5.4607   -7.5706   16.6371 C   0  0  0  0  0  0  0  0  0  0  0  0
    4.8362   -9.9264   17.0459 F   0  0  0  0  0  0  0  0  0  0  0  0
    5.3747   -7.8736   15.1710 F   0  0  0  0  0  0  0  0  0  0  0  0
    9.8015   -7.1753   18.4936 F   0  0  0  0  0  0  0  0  0  0  0  0
    4.6349   -7.5568   17.4173 F   0  0  0  0  0  0  0  0  0  0  0  0
    9.4577   -5.7043   18.0468 C   0  0  0  0  0  0  0  0  0  0  0  0
    7.1703   -7.1367   15.1964 F   0  0  0  0  0  0  0  0  0  0  0  0
   10.0949   -4.9887   20.0774 C   0  0  0  0  0  0  0  0  0  0  0  0
    9.9865   -1.8435   23.7845 C   0  0  0  0  0  0  0  0  0  0  0  0
    1.3827  -10.0024   16.3198 C   0  0  0  0  0  0  0  0  0  0  0  0
   10.1537   -4.2851   20.3482 C   0  0  0  0  0  0  0  0  0  0  0  0
   10.3647   -3.3892   22.4442 C   0  0  0  0  0  0  0  0  0  0  0  0
    1.4803  -10.1295   16.9488 C   0  0  0  0  0  0  0  0  0  0  0  0
    8.0285   -7.7778   16.1161 F   0  0  0  0  0  0  0  0  0  0  0  0
    3.1687   -9.4338   16.5978 C   0  0  0  0  0  0  0  0  0  0  0  0
    4.8268  -10.3517   17.0832 F   0  0  0  0  0  0  0  0  0  0  0  0
    8.4875   -8.3185   16.7106 F   0  0  0  0  0  0  0  0  0  0  0  0
    6.4764   -8.9882   17.4721 F   0  0  0  0  0  0  0  0  0  0  0  0
    8.1415   -6.8375   16.4013 C   0  0  0  0  0  0  0  0  0  0  0  0
    9.8593   -4.7425   18.5598 C   0  0  0  0  0  0  0  0  0  0  0  0
  2  8  1  0
  2 23  1  0
  2 26  1  0
  7 24  1  0
 16 30  1  0
 20 34  1  0
 22 25  1  0
 24 27  1  0
 25 26  1  0
M  END
$$$$

 Created by Python create_sdf_string function

 34118  0  0  0  0  0  0  0  0999 V2000
   11.3997   -7.8635   18.0150 N   0  0  0  0  0  0  0  0  0  0  0  0
    7.7113   -8.0859   15.7754 Br  0  0  0  0  0  0  0  0  0  0  0  0
    3.0021   -8.0835   16.9622 C   0  0  0  0  0  0  0  0  0  0  0  0
    6.6533   -8.1196   15.1363 F   0  0  0  0  0  0  0  0  0  0  0  0
    8.8606   -8.4737   18.0118 F   0  0  0  0  0  0  0  0  0  0  0  0
    0.8754  -10.5182   15.4830 N   0  0  0  0  0  0  0  0  0  0  0  0
    6.7456   -6.7985   17.8346 F   0  0  0  0  0  0  0  0  0  0  0  0
    2.2139   -8.9832   13.6110 C   0  0  0  0  0  0  0  0  0  0  0  0
    5.0184   -8.6168   15.5876 F   0  0  0  0  0  0  0  0  0  0  0  0
    6.0773   -6.3268   15.2849 I   0  0  0  0  0  0  0  0  0  0  0  0
    5.2673   -9.4206   13.6610 N   0  0  0  0  0  0  0  0  0  0  0  0
    9.0665   -4.7865   16.4610 P   0  0  0  0  0  0  0  0  0  0  0  0
    6.6167   -7.2990   17.2360 O   0  0  0  0  0  0  0  0  0  0  0  0
    9.1737   -6.6325   19.3106 C   0  0  0  0  0  0  0  0  0  0  0  0
    9.3332   -6.0789   18.2918 C   0  0  0  0  0  0  0  0  0  0  0  0
    7.1896   -7.2791   14.9827 F   0  0  0  0  0  0  0  0  0  0  0  0
    9.6639   -2.2998   24.1077 N   0  0  0  0  0  0  0  0  0  0  0  0
    0.4583  -10.2757   16.1004 C   0  0  0  0  0  0  0  0  0  0  0  0
   10.7114   -3.0155   21.1820 N   0  0  0  0  0  0  0  0  0  0  0  0
   10.6552   -3.7188   21.6296 C   0  0  0  0  0  0  0  0  0  0  0  0
    0.9289  -10.4058   17.0129 C   0  0  0  0  0  0  0  0  0  0  0  0
    2.4371   -9.9878   15.9510 C   0  0  0  0  0  0  0  0  0  0  0  0
    8.8058   -9.3637   17.1379 Cl  0  0  0  0  0  0  0  0  0  0  0  0
    5.1899   -8.4990   17.9032 Cl  0  0  0  0  0  0  0  0  0  0  0  0
    8.4068   -8.9125   16.0886 O   0  0  0  0  0  0  0  0  0  0  0  0
   10.0421   -4.5198   18.4126 C   0  0  0  0  0  0  0  0  0  0  0  0
   10.4292   -2.4925   23.3490 He  0  0  0  0  0  0  0  0  0  0  0  0
   10.0149   -3.6159   24.4860 He  0  0  0  0  0  0  0  0  0  0  0  0
    2.0906   -9.9935   16.9006 He  0  0  0  0  0  0  0  0  0  0  0  0
    4.6753   -7.4160   16.0419 He  0  0  0  0  0  0  0  0  0  0  0  0
    5.2281   -8.2617   17.2456 He  0  0  0  0  0  0  0  0  0  0  0  0
   10.6833   -4.1853   19.9067 He  0  0  0  0  0  0  0  0  0  0  0  0
    8.1075   -7.5226   16.1875 He  0  0  0  0  0  0  0  0  0  0  0  0
    5.0312  -10.8027   17.2670 He  0  0  0  0  0  0  0  0  0  0  0  0
  1  5  4  0
  1  8  2  0
  1 14  3  0
  1 22  4  0
  1 24  1  0
  1 25  1  0
  1 26  4  0
  2  6  4  0
  2  9  2  0
  2 10  2  0
  2 15  3  0
  2 16  2  0
  2 20  3  0
  2 21  4  0
  3  5  2  0
  3  6  4  0
  3  7  2  0
  3  8  1  0
  3  9  1  0
  3 11  3  0
  3 12  3  0
  3 13  3  0
  3 17  1  0
  3 18  2  0
  3 20  4  0
  3 21  2  0
  3 26  2  0
  4  9  2  0
  4 15  1  0
  4 19  4  0
  4 21  1  0
  4 22  2  0
  4 23  1  0
  4 25  2  0
  5  7  2  0
  5  8  4  0
  5 13  2  0
  5 14  3  0
  5 17  2  0
  5 20  2  0
  5 23  3  0
  5 25  2  0
  5 26  4  0
  6  7  2  0
  6 10  2  0
  6 18  1  0
  6 24  4  0
  7 14  2  0
  8  9  1  0
  8 10  4  0
  8 13  3  0
  8 14  3  0
  8 15  1  0
  8 16  1  0
  8 17  1  0
  8 18  2  0
  8 20  2  0
  8 21  1  0
  8 22  3  0
  9 10  4  0
  9 13  2  0
  9 14  1  0
  9 21  1  0
  9 24  3  0
 10 12  4  0
 10 13  2  0
 10 14  1  0
 10 15  2  0
 10 17  4  0
 10 22  2  0
 10 25  4  0
 11 12  2  0
 11 13  3  0
 11 18  1  0
 11 19  1  0
 11 23  3  0
 11 24  4  0
 11 25  3  0
 11 26  3  0
 12 19  3  0
 12 24  4  0
 12 25  1  0
 13 14  1  0
 13 17  3  0
 13 18  3  0
 13 21  4  0
 13 22  3  0
 13 24  4  0
 14 22  1  0
 14 26  1  0
 15 23  1  0
 15 25  4  0
 15 26  1  0
 16 17  4  0
 16 23  4  0
 16 24  1  0
 17 20  3  0
 17 21  3  0
 17 23  2  0
 17 25  3  0
 18 21  1  0
 18 23  1  0
 18 25  3  0
 19 20  3  0
 19 22  4  0
 19 25  3  0
 19 26  1  0
 20 24  3  0
 20 25  2  0
 21 22  3  0
 21 24  3  0
 21 25  1  0
 22 23  3  0
 22 24  1  0
 23 24  1  0
 23 25  4  0
 24 25  4  0
 25 26  1  0
M  END
$$$$

 Created by Python create_sdf_string function

 34  9  0  0  0  0  0  0  0  0999 V2000
   10.2414   -7.0061   18.3871 F   0  0  0  0  0  0  0  0  0  0  0  0
   10.4275   -2.8148   23.3510 C   0  0  0  0  0  0  0  0  0  0  0  0
    7.6656   -8.0561   15.9157 F   0  0  0  0  0  0  0  0  0  0  0  0
    2.9338   -8.9415   16.5218 C   0  0  0  0  0  0  0  0  0  0  0  0
    6.4228   -8.3702   15.6328 F   0  0  0  0  0  0  0  0  0  0  0  0
    8.8863   -7.7190   17.9111 F   0  0  0  0  0  0  0  0  0  0  0  0
    0.4471   -9.9786   15.5442 C   0  0  0  0  0  0  0  0  0  0  0  0
   10.5860   -3.4637   24.0409 O   0  0  0  0  0  0  0  0  0  0  0  0
    6.9158   -6.7412   18.1087 F   0  0  0  0  0  0  0  0  0  0  0  0
    2.0170   -9.1921   14.8774 C   0  0  0  0  0  0  0  0  0  0  0  0
    4.5199   -8.6987   15.6792 C   0  0  0  0  0  0  0  0  0  0  0  0
    6.1206   -6.6012   15.6892 F   0  0  0  0  0  0  0  0  0  0  0  0
    5.1658   -9.0025   14.8772 F   0  0  0  0  0  0  0  0  0  0  0  0
    9.1724   -5.0064   16.7607 F   0  0  0  0  0  0  0  0  0  0  0  0
    6.7072   -7.4163   17.4296 C   0  0  0  0  0  0  0  0  0  0  0  0
    1.7589   -9.9176   17.0224 C   0  0  0  0  0  0  0  0  0  0  0  0
    4.5157   -7.7793   16.1813 F   0  0  0  0  0  0  0  0  0  0  0  0
    9.8404   -6.0174   19.1147 C   0  0  0  0  0  0  0  0  0  0  0  0
    5.2693   -8.4338   17.2669 F   0  0  0  0  0  0  0  0  0  0  0  0
    9.5961   -5.6418   18.5027 C   0  0  0  0  0  0  0  0  0  0  0  0
    7.2024   -7.2299   15.0802 F   0  0  0  0  0  0  0  0  0  0  0  0
   10.6791   -4.3762   20.3360 C   0  0  0  0  0  0  0  0  0  0  0  0
   10.0461   -2.0965   23.6272 O   0  0  0  0  0  0  0  0  0  0  0  0
    0.3380  -10.2155   16.2220 C   0  0  0  0  0  0  0  0  0  0  0  0
   10.6546   -3.5711   21.4567 N   0  0  0  0  0  0  0  0  0  0  0  0
   10.6096   -3.6786   21.8149 C   0  0  0  0  0  0  0  0  0  0  0  0
    0.8762  -10.2247   17.0879 C   0  0  0  0  0  0  0  0  0  0  0  0
    8.2412   -7.1398   16.7623 C   0  0  0  0  0  0  0  0  0  0  0  0
    2.1705   -9.4176   16.1351 C   0  0  0  0  0  0  0  0  0  0  0  0
    4.6776   -9.8056   17.5085 F   0  0  0  0  0  0  0  0  0  0  0  0
    8.4087   -8.4692   17.1083 F   0  0  0  0  0  0  0  0  0  0  0  0
    5.3199   -8.5644   17.8617 F   0  0  0  0  0  0  0  0  0  0  0  0
    8.1857   -8.4135   16.0203 F   0  0  0  0  0  0  0  0  0  0  0  0
   10.1050   -4.6052   18.6863 C   0  0  0  0  0  0  0  0  0  0  0  0
  2  8  1  0
  2 23  1  0
  2 26  1  0
  7 24  4  0
  9 15  1  0
 19 32  1  0
 20 34  1  0
 24 27  4  0
 25 26  1  0
M  END
$$$$

 Created by Python create_sdf_string function

 34 48  0  0  0  0  0  0  0  0999 V2000
    9.6466   -7.0789   17.2531 Cl  0  0  0  0  0  0  0  0  0  0  0  0
    0.9005   -9.7710   15.8086 P   0  0  0  0  0  0  0  0  0  0  0  0
    4.6596   -8.7526   15.6909 C   0  0  0  0  0  0  0  0  0  0  0  0
    4.9116   -7.5869   13.9879 N   0  0  0  0  0  0  0  0  0  0  0  0
    8.0467   -5.0260   17.0262 F   0  0  0  0  0  0  0  0  0  0  0  0
    6.8582   -6.5461   16.1489 O   0  0  0  0  0  0  0  0  0  0  0  0
    5.0225   -8.3718   16.8470 C   0  0  0  0  0  0  0  0  0  0  0  0
    6.9443   -8.0381   15.0267 Cl  0  0  0  0  0  0  0  0  0  0  0  0
   11.1540   -4.4022   20.6640 P   0  0  0  0  0  0  0  0  0  0  0  0
   10.2680   -2.4190   23.9936 O   0  0  0  0  0  0  0  0  0  0  0  0
    0.7062  -10.1102   15.5546 Br  0  0  0  0  0  0  0  0  0  0  0  0
   11.0450   -3.0149   20.9981 C   0  0  0  0  0  0  0  0  0  0  0  0
    0.9330  -11.5495   16.9268 C   0  0  0  0  0  0  0  0  0  0  0  0
    7.5174   -6.1067   14.7899 O   0  0  0  0  0  0  0  0  0  0  0  0
    2.5915  -10.2418   15.8729 C   0  0  0  0  0  0  0  0  0  0  0  0
    9.4049   -9.5085   15.5765 N   0  0  0  0  0  0  0  0  0  0  0  0
    7.0092   -9.1011   15.8954 O   0  0  0  0  0  0  0  0  0  0  0  0
   10.5136   -3.7704   18.4209 S   0  0  0  0  0  0  0  0  0  0  0  0
   11.5311   -5.4325   17.4858 He  0  0  0  0  0  0  0  0  0  0  0  0
   10.3466   -2.4014   23.0771 He  0  0  0  0  0  0  0  0  0  0  0  0
    8.6582   -9.9438   15.7720 He  0  0  0  0  0  0  0  0  0  0  0  0
    3.4228   -9.5348   17.1907 He  0  0  0  0  0  0  0  0  0  0  0  0
    6.6824   -7.1899   17.6814 He  0  0  0  0  0  0  0  0  0  0  0  0
   10.6761   -3.4771   24.6192 He  0  0  0  0  0  0  0  0  0  0  0  0
    7.0569   -6.4000   17.7344 He  0  0  0  0  0  0  0  0  0  0  0  0
    3.2679  -10.3640   15.4181 He  0  0  0  0  0  0  0  0  0  0  0  0
    8.5971   -5.6461   16.3666 He  0  0  0  0  0  0  0  0  0  0  0  0
    1.3213   -9.7066   16.0535 He  0  0  0  0  0  0  0  0  0  0  0  0
    9.8176   -3.7430   18.5018 He  0  0  0  0  0  0  0  0  0  0  0  0
    4.9646   -9.3678   16.8902 He  0  0  0  0  0  0  0  0  0  0  0  0
   10.0523   -5.3996   18.0017 He  0  0  0  0  0  0  0  0  0  0  0  0
    9.9020   -4.0705   21.1749 He  0  0  0  0  0  0  0  0  0  0  0  0
    4.4573   -9.1031   16.8615 He  0  0  0  0  0  0  0  0  0  0  0  0
    6.1609   -8.3066   20.4668 He  0  0  0  0  0  0  0  0  0  0  0  0
  1  5  1  0
  1  7  2  0
  1  9  3  0
  1 14  2  0
  1 15  4  0
  2  4  2  0
  2  7  4  0
  2 11  4  0
  2 12  3  0
  2 14  3  0
  2 15  3  0
  2 16  3  0
  2 17  4  0
  3  5  4  0
  3  6  1  0
  3  7  1  0
  3  9  3  0
  3 11  3  0
  3 14  1  0
  3 17  1  0
  4  6  3  0
  4 13  4  0
  4 16  2  0
  5 14  2  0
  5 16  2  0
  5 17  1  0
  6  7  4  0
  6  8  4  0
  6 12  4  0
  6 15  3  0
  6 18  1  0
  7 10  1  0
  8  9  1  0
  8 17  3  0
  9 12  3  0
  9 15  3  0
  9 18  2  0
 10 14  1  0
 10 16  3  0
 11 13  4  0
 11 14  1  0
 12 13  4  0
 12 15  3  0
 12 18  4  0
 13 14  2  0
 14 15  4  0
 14 17  2  0
 17 18  4  0
M  END
$$$$

 Created by Python create_sdf_string function

 34  7  0  0  0  0  0  0  0  0999 V2000
   10.8907   -5.1966   17.9926 C   0  0  0  0  0  0  0  0  0  0  0  0
   10.5517   -2.8621   23.0965 C   0  0  0  0  0  0  0  0  0  0  0  0
    7.9477   -8.5722   15.7946 C   0  0  0  0  0  0  0  0  0  0  0  0
    2.9754   -9.4905   17.0752 C   0  0  0  0  0  0  0  0  0  0  0  0
    6.9662   -7.3466   17.6382 C   0  0  0  0  0  0  0  0  0  0  0  0
    9.4121   -6.9983   17.7101 C   0  0  0  0  0  0  0  0  0  0  0  0
    0.8368   -9.8550   15.5284 C   0  0  0  0  0  0  0  0  0  0  0  0
   10.8283   -3.5912   23.8056 O   0  0  0  0  0  0  0  0  0  0  0  0
    7.6390   -6.6720   17.6524 C   0  0  0  0  0  0  0  0  0  0  0  0
    2.7488   -9.1592   15.5961 C   0  0  0  0  0  0  0  0  0  0  0  0
    4.5452   -8.6863   15.7733 C   0  0  0  0  0  0  0  0  0  0  0  0
    8.8143   -5.7323   16.8348 C   0  0  0  0  0  0  0  0  0  0  0  0
    5.0114   -8.0267   14.7762 C   0  0  0  0  0  0  0  0  0  0  0  0
    8.8174   -5.2823   16.8274 C   0  0  0  0  0  0  0  0  0  0  0  0
    6.9230   -6.7383   16.2664 C   0  0  0  0  0  0  0  0  0  0  0  0
    1.2435   -9.8947   16.3044 C   0  0  0  0  0  0  0  0  0  0  0  0
    5.1065   -8.4553   17.0340 C   0  0  0  0  0  0  0  0  0  0  0  0
   10.2882   -4.2431   19.0840 C   0  0  0  0  0  0  0  0  0  0  0  0
    4.7278   -8.9653   17.1018 C   0  0  0  0  0  0  0  0  0  0  0  0
   10.2022   -5.3113   18.3215 C   0  0  0  0  0  0  0  0  0  0  0  0
    6.9059   -8.0314   15.3516 F   0  0  0  0  0  0  0  0  0  0  0  0
   10.9563   -4.2955   20.8660 C   0  0  0  0  0  0  0  0  0  0  0  0
   10.2866   -2.3343   23.5164 O   0  0  0  0  0  0  0  0  0  0  0  0
    0.4059  -10.0413   15.7010 C   0  0  0  0  0  0  0  0  0  0  0  0
   10.6237   -3.7879   21.3163 C   0  0  0  0  0  0  0  0  0  0  0  0
   10.9313   -3.5501   21.2426 C   0  0  0  0  0  0  0  0  0  0  0  0
    0.5809  -10.4213   17.0163 C   0  0  0  0  0  0  0  0  0  0  0  0
    7.4394   -6.1545   15.4088 F   0  0  0  0  0  0  0  0  0  0  0  0
    2.1944   -9.4925   16.1888 C   0  0  0  0  0  0  0  0  0  0  0  0
    4.1312   -8.9365   16.9999 C   0  0  0  0  0  0  0  0  0  0  0  0
    8.6413   -8.6381   15.7634 F   0  0  0  0  0  0  0  0  0  0  0  0
    6.2038   -8.1322   19.0166 F   0  0  0  0  0  0  0  0  0  0  0  0
    6.8848   -8.8246   15.8972 C   0  0  0  0  0  0  0  0  0  0  0  0
   10.6949   -4.0269   18.9924 C   0  0  0  0  0  0  0  0  0  0  0  0
  2  8  1  0
  2 23  1  0
  3 31  1  0
  7 24  4  0
 12 14  4  0
 16 27  4  0
 24 27  4  0
M  END
$$$$

 Created by Python create_sdf_string function

 34 64  0  0  0  0  0  0  0  0999 V2000
    3.6145   -8.9570   17.4973 N   0  0  0  0  0  0  0  0  0  0  0  0
   10.8704   -3.9168   23.5726 O   0  0  0  0  0  0  0  0  0  0  0  0
    8.4019   -6.4242   17.7744 C   0  0  0  0  0  0  0  0  0  0  0  0
    3.0410   -9.3095   16.4628 C   0  0  0  0  0  0  0  0  0  0  0  0
    4.6242   -8.3217   15.1304 C   0  0  0  0  0  0  0  0  0  0  0  0
    5.3929   -8.7159   15.1750 C   0  0  0  0  0  0  0  0  0  0  0  0
    9.0081   -5.7992   16.0213 C   0  0  0  0  0  0  0  0  0  0  0  0
    5.1106   -8.6620   17.4776 N   0  0  0  0  0  0  0  0  0  0  0  0
    8.9886   -4.7878   20.6916 F   0  0  0  0  0  0  0  0  0  0  0  0
   10.9262   -5.7799   18.2511 P   0  0  0  0  0  0  0  0  0  0  0  0
    6.9291   -8.2169   15.0119 F   0  0  0  0  0  0  0  0  0  0  0  0
   10.1001   -4.8196   19.6418 O   0  0  0  0  0  0  0  0  0  0  0  0
   10.5872   -3.0466   23.5353 O   0  0  0  0  0  0  0  0  0  0  0  0
   -0.1257   -9.4895   15.7173 C   0  0  0  0  0  0  0  0  0  0  0  0
    0.7448  -10.9909   16.0357 C   0  0  0  0  0  0  0  0  0  0  0  0
    2.3313   -9.9187   16.3373 C   0  0  0  0  0  0  0  0  0  0  0  0
    8.7236   -9.6534   14.8073 F   0  0  0  0  0  0  0  0  0  0  0  0
    5.8098   -7.9904   20.6718 P   0  0  0  0  0  0  0  0  0  0  0  0
    7.6619   -8.9255   14.7783 Cl  0  0  0  0  0  0  0  0  0  0  0  0
   11.5140   -6.8034   19.0582 He  0  0  0  0  0  0  0  0  0  0  0  0
   10.9434   -3.2847   23.2493 He  0  0  0  0  0  0  0  0  0  0  0  0
    8.0206   -9.4218   14.1879 He  0  0  0  0  0  0  0  0  0  0  0  0
    6.1224   -8.6211   18.0680 He  0  0  0  0  0  0  0  0  0  0  0  0
    9.3836   -6.0523   18.8001 He  0  0  0  0  0  0  0  0  0  0  0  0
   -0.0157  -10.5150   15.6204 He  0  0  0  0  0  0  0  0  0  0  0  0
    8.8331   -5.3120   18.0250 He  0  0  0  0  0  0  0  0  0  0  0  0
    5.9970   -7.8914   17.2105 He  0  0  0  0  0  0  0  0  0  0  0  0
    1.8565  -10.0505   13.9422 He  0  0  0  0  0  0  0  0  0  0  0  0
    4.5727  -10.9009   17.9345 He  0  0  0  0  0  0  0  0  0  0  0  0
   10.8915   -4.3056   23.1383 He  0  0  0  0  0  0  0  0  0  0  0  0
   10.5342   -4.4630   21.0350 He  0  0  0  0  0  0  0  0  0  0  0  0
    7.5271   -6.1248   15.6789 He  0  0  0  0  0  0  0  0  0  0  0  0
    4.3699   -9.7493   18.2486 He  0  0  0  0  0  0  0  0  0  0  0  0
   10.6626   -4.1214   19.4024 He  0  0  0  0  0  0  0  0  0  0  0  0
  1  3  4  0
  1  4  1  0
  1  6  1  0
  1  7  2  0
  1 10  1  0
  1 11  1  0
  1 12  4  0
  1 14  1  0
  1 17  4  0
  1 18  1  0
  1 19  4  0
  2  5  4  0
  2 12  3  0
  2 16  3  0
  2 17  3  0
  2 18  3  0
  2 19  3  0
  3  6  2  0
  3  8  4  0
  3 18  1  0
  4  5  3  0
  4  7  1  0
  4  8  3  0
  4  9  3  0
  4 11  4  0
  4 12  3  0
  4 14  1  0
  5  9  2  0
  5 17  1  0
  6 11  2  0
  6 12  1  0
  6 13  4  0
  6 15  3  0
  6 17  2  0
  6 18  3  0
  7 13  1  0
  7 15  1  0
  7 19  4  0
  8  9  3  0
  8 10  2  0
  8 12  3  0
  8 13  2  0
  8 14  3  0
  8 16  3  0
  8 17  1  0
  9 10  2  0
  9 12  2  0
  9 13  3  0
  9 14  4  0
  9 19  3  0
 10 12  2  0
 10 16  2  0
 12 13  2  0
 12 19  1  0
 13 14  3  0
 13 16  3  0
 13 18  1  0
 13 19  3  0
 14 15  4  0
 14 16  4  0
 14 19  2  0
 15 17  4  0
 15 19  3  0
 16 19  1  0
M  END
$$$$

 Created by Python create_sdf_string function

 34  8  0  0  0  0  0  0  0  0999 V2000
   10.7655   -5.9964   19.0118 C   0  0  0  0  0  0  0  0  0  0  0  0
   10.7963   -3.2971   23.2072 C   0  0  0  0  0  0  0  0  0  0  0  0
    7.5958   -8.8693   15.0969 F   0  0  0  0  0  0  0  0  0  0  0  0
    3.3239   -9.3312   16.8774 C   0  0  0  0  0  0  0  0  0  0  0  0
    6.2768   -8.2046   17.7642 C   0  0  0  0  0  0  0  0  0  0  0  0
    9.5108   -5.8695   18.4611 C   0  0  0  0  0  0  0  0  0  0  0  0
    0.1321  -10.2178   15.7303 C   0  0  0  0  0  0  0  0  0  0  0  0
   10.9456   -3.9088   23.7898 O   0  0  0  0  0  0  0  0  0  0  0  0
    8.3172   -6.4980   17.6834 C   0  0  0  0  0  0  0  0  0  0  0  0
    2.6700   -9.2974   16.2464 C   0  0  0  0  0  0  0  0  0  0  0  0
    4.3965   -8.5473   15.2232 C   0  0  0  0  0  0  0  0  0  0  0  0
    9.2655   -5.6181   17.9091 C   0  0  0  0  0  0  0  0  0  0  0  0
    5.2291   -8.6134   15.4595 C   0  0  0  0  0  0  0  0  0  0  0  0
    8.7370   -5.8612   16.3091 C   0  0  0  0  0  0  0  0  0  0  0  0
    6.4262   -7.8692   17.2138 C   0  0  0  0  0  0  0  0  0  0  0  0
    1.5086   -9.2764   14.8689 C   0  0  0  0  0  0  0  0  0  0  0  0
    5.1624   -8.7174   17.3088 C   0  0  0  0  0  0  0  0  0  0  0  0
   10.0685   -4.1729   20.5015 C   0  0  0  0  0  0  0  0  0  0  0  0
    4.1294  -10.0125   17.9203 C   0  0  0  0  0  0  0  0  0  0  0  0
   10.6019   -5.5198   18.4050 C   0  0  0  0  0  0  0  0  0  0  0  0
    6.9143   -8.1193   15.3580 C   0  0  0  0  0  0  0  0  0  0  0  0
   10.4683   -4.6317   19.9054 C   0  0  0  0  0  0  0  0  0  0  0  0
   10.5125   -2.7299   23.3347 O   0  0  0  0  0  0  0  0  0  0  0  0
    0.3347   -9.8776   15.5034 C   0  0  0  0  0  0  0  0  0  0  0  0
   11.0202   -4.1517   22.6461 C   0  0  0  0  0  0  0  0  0  0  0  0
   10.8478   -4.2197   21.2631 C   0  0  0  0  0  0  0  0  0  0  0  0
    0.4941  -10.3315   16.3324 C   0  0  0  0  0  0  0  0  0  0  0  0
    7.7618   -6.3969   15.9717 C   0  0  0  0  0  0  0  0  0  0  0  0
    1.8873   -9.6370   16.4319 C   0  0  0  0  0  0  0  0  0  0  0  0
    4.0263   -9.6539   17.7147 C   0  0  0  0  0  0  0  0  0  0  0  0
    8.2769   -8.6263   15.1447 F   0  0  0  0  0  0  0  0  0  0  0  0
    6.2228   -8.0819   19.1283 O   0  0  0  0  0  0  0  0  0  0  0  0
    7.5614   -8.3180   15.3904 C   0  0  0  0  0  0  0  0  0  0  0  0
   10.7700   -4.1795   19.7097 C   0  0  0  0  0  0  0  0  0  0  0  0
  1 20  4  0
  2  8  1  0
  2 23  1  0
  7 27  4  0
 11 13  4  0
 14 28  4  0
 19 30  4  0
 24 27  4  0
M  END
$$$$

 Created by Python create_sdf_string function

 34 77  0  0  0  0  0  0  0  0999 V2000
   10.8133   -2.6679   22.8944 C   0  0  0  0  0  0  0  0  0  0  0  0
    6.9583   -9.5008   15.1537 S   0  0  0  0  0  0  0  0  0  0  0  0
    2.9093   -9.9493   17.8905 O   0  0  0  0  0  0  0  0  0  0  0  0
    9.4212   -5.3959   17.2060 I   0  0  0  0  0  0  0  0  0  0  0  0
    0.4757  -10.7666   15.6153 C   0  0  0  0  0  0  0  0  0  0  0  0
    8.4269   -6.8225   17.4237 C   0  0  0  0  0  0  0  0  0  0  0  0
    4.9012   -9.1354   13.3175 C   0  0  0  0  0  0  0  0  0  0  0  0
    6.7450   -6.4789   16.8476 C   0  0  0  0  0  0  0  0  0  0  0  0
    1.0699  -10.5553   15.1918 S   0  0  0  0  0  0  0  0  0  0  0  0
   10.0212   -5.3495   20.6568 C   0  0  0  0  0  0  0  0  0  0  0  0
    4.0155  -10.5604   19.3084 O   0  0  0  0  0  0  0  0  0  0  0  0
   10.9989   -5.7780   18.7935 P   0  0  0  0  0  0  0  0  0  0  0  0
    6.6782   -7.2814   14.7252 O   0  0  0  0  0  0  0  0  0  0  0  0
   10.4361   -3.1103   23.4022 O   0  0  0  0  0  0  0  0  0  0  0  0
    0.7532   -9.4843   14.7042 C   0  0  0  0  0  0  0  0  0  0  0  0
   10.8456   -5.1085   20.4994 C   0  0  0  0  0  0  0  0  0  0  0  0
    0.6531  -10.3146   15.9661 C   0  0  0  0  0  0  0  0  0  0  0  0
    2.0367   -9.5063   15.9805 C   0  0  0  0  0  0  0  0  0  0  0  0
    3.3819   -9.1649   17.8681 O   0  0  0  0  0  0  0  0  0  0  0  0
    6.8728   -8.2621   20.7512 N   0  0  0  0  0  0  0  0  0  0  0  0
   11.0706   -5.0394   18.0475 He  0  0  0  0  0  0  0  0  0  0  0  0
    5.4691   -7.4821   16.2864 He  0  0  0  0  0  0  0  0  0  0  0  0
   11.2010   -4.1656   24.0714 He  0  0  0  0  0  0  0  0  0  0  0  0
    3.3131  -10.9136   16.0410 He  0  0  0  0  0  0  0  0  0  0  0  0
    4.7912   -8.7786   15.5076 He  0  0  0  0  0  0  0  0  0  0  0  0
    7.9699   -7.9978   17.1574 He  0  0  0  0  0  0  0  0  0  0  0  0
    9.1315   -5.2018   15.8939 He  0  0  0  0  0  0  0  0  0  0  0  0
    6.9939   -8.5671   19.9056 He  0  0  0  0  0  0  0  0  0  0  0  0
   12.6613   -3.5595   19.8857 He  0  0  0  0  0  0  0  0  0  0  0  0
   10.5353   -5.1877   23.0606 He  0  0  0  0  0  0  0  0  0  0  0  0
    8.8940   -5.3085   16.9269 He  0  0  0  0  0  0  0  0  0  0  0  0
    9.2243   -7.8716   14.8531 He  0  0  0  0  0  0  0  0  0  0  0  0
    6.9110   -8.1778   15.3571 He  0  0  0  0  0  0  0  0  0  0  0  0
   10.8842   -4.4284   19.7253 He  0  0  0  0  0  0  0  0  0  0  0  0
  1  3  1  0
  1  4  4  0
  1  8  2  0
  1  9  2  0
  1 14  1  0
  1 18  3  0
  1 19  2  0
  2  3  1  0
  2  5  2  0
  2  8  2  0
  2 10  3  0
  2 11  1  0
  2 14  1  0
  2 15  4  0
  2 16  4  0
  2 17  4  0
  2 18  3  0
  2 19  1  0
  2 20  1  0
  3  7  3  0
  3  8  3  0
  3  9  2  0
  3 10  2  0
  3 11  1  0
  3 14  2  0
  3 17  3  0
  3 19  2  0
  3 20  3  0
  4  5  4  0
  4  9  4  0
  4 11  3  0
  4 12  2  0
  4 15  2  0
  4 20  2  0
  5  9  1  0
  5 16  2  0
  5 17  4  0
  6 10  3  0
  6 11  2  0
  6 13  1  0
  6 17  4  0
  6 19  2  0
  7 10  4  0
  7 13  4  0
  7 15  2  0
  7 16  3  0
  7 20  2  0
  8  9  3  0
  8 10  2  0
  8 12  3  0
  8 14  3  0
  8 16  1  0
  8 17  3  0
  8 18  3  0
  8 20  1  0
  9 10  4  0
  9 12  1  0
  9 13  3  0
  9 15  3  0
  9 16  4  0
  9 18  1  0
  9 19  3  0
 10 14  2  0
 10 15  4  0
 10 18  2  0
 10 19  4  0
 11 12  2  0
 11 16  4  0
 11 17  2  0
 11 18  1  0
 12 15  3  0
 13 14  3  0
 13 17  1  0
 13 18  3  0
 14 20  2  0
 15 17  4  0
 16 19  3  0
M  END
$$$$

 Created by Python create_sdf_string function

 34 17  0  0  0  0  0  0  0  0999 V2000
   10.6767   -4.6646   18.0942 C   0  0  0  0  0  0  0  0  0  0  0  0
   10.8859   -3.2042   22.9646 C   0  0  0  0  0  0  0  0  0  0  0  0
    6.5362   -8.8984   15.5317 C   0  0  0  0  0  0  0  0  0  0  0  0
    3.0944   -9.9384   17.5677 C   0  0  0  0  0  0  0  0  0  0  0  0
    5.4881   -8.1363   16.6986 C   0  0  0  0  0  0  0  0  0  0  0  0
    9.5366   -5.3131   17.2294 C   0  0  0  0  0  0  0  0  0  0  0  0
    0.1851  -10.4094   15.8004 C   0  0  0  0  0  0  0  0  0  0  0  0
   11.1955   -4.2662   24.0102 O   0  0  0  0  0  0  0  0  0  0  0  0
    8.4568   -6.7547   17.5002 C   0  0  0  0  0  0  0  0  0  0  0  0
    2.7782   -9.5412   16.3724 C   0  0  0  0  0  0  0  0  0  0  0  0
    4.5277   -8.9970   15.7950 C   0  0  0  0  0  0  0  0  0  0  0  0
    8.0377   -7.7735   17.1225 C   0  0  0  0  0  0  0  0  0  0  0  0
    4.8113   -8.9099   14.8481 C   0  0  0  0  0  0  0  0  0  0  0  0
    9.2148   -5.0932   16.0908 C   0  0  0  0  0  0  0  0  0  0  0  0
    6.9532   -7.1515   17.0577 C   0  0  0  0  0  0  0  0  0  0  0  0
    1.1009   -9.7805   15.2731 C   0  0  0  0  0  0  0  0  0  0  0  0
    6.7138   -8.1886   18.5412 C   0  0  0  0  0  0  0  0  0  0  0  0
   10.6037   -5.0926   20.4287 C   0  0  0  0  0  0  0  0  0  0  0  0
    4.1447  -10.0698   18.3541 O   0  0  0  0  0  0  0  0  0  0  0  0
   10.5198   -5.2731   18.8229 C   0  0  0  0  0  0  0  0  0  0  0  0
    6.6294   -7.1210   14.9245 O   0  0  0  0  0  0  0  0  0  0  0  0
   11.2243   -3.6878   20.2400 C   0  0  0  0  0  0  0  0  0  0  0  0
   10.3682   -2.8660   23.2356 O   0  0  0  0  0  0  0  0  0  0  0  0
    0.7222   -9.7173   14.6898 C   0  0  0  0  0  0  0  0  0  0  0  0
   11.1540   -4.4946   22.4009 C   0  0  0  0  0  0  0  0  0  0  0  0
   10.9491   -4.5989   20.9794 C   0  0  0  0  0  0  0  0  0  0  0  0
    0.4301  -10.3535   15.8619 C   0  0  0  0  0  0  0  0  0  0  0  0
    9.1493   -5.5490   16.9613 C   0  0  0  0  0  0  0  0  0  0  0  0
    2.2017   -9.6648   15.9452 C   0  0  0  0  0  0  0  0  0  0  0  0
    3.6243   -9.6189   17.4911 C   0  0  0  0  0  0  0  0  0  0  0  0
    8.4143   -7.9373   15.3908 C   0  0  0  0  0  0  0  0  0  0  0  0
    6.7535   -8.1238   18.9303 C   0  0  0  0  0  0  0  0  0  0  0  0
    6.8571   -8.3402   15.7528 C   0  0  0  0  0  0  0  0  0  0  0  0
   10.7430   -4.4920   19.6955 C   0  0  0  0  0  0  0  0  0  0  0  0
  1 20  4  0
  2  8  2  0
  2 23  1  0
  2 25  1  0
  3 33  1  0
  6 14  4  0
  7 27  4  0
  9 12  1  0
 10 29  4  0
 11 13  4  0
 14 28  4  0
 16 24  4  0
 16 29  4  0
 17 32  1  0
 18 34  4  0
 20 34  4  0
 24 27  4  0
M  END
$$$$

 Created by Python create_sdf_string function

 34 57  0  0  0  0  0  0  0  0999 V2000
   10.2652   -5.6835   18.7566 Cl  0  0  0  0  0  0  0  0  0  0  0  0
   11.1195   -3.0573   22.9111 C   0  0  0  0  0  0  0  0  0  0  0  0
    2.9170   -8.5789   18.3984 Cl  0  0  0  0  0  0  0  0  0  0  0  0
   10.1887   -4.9874   16.6682 O   0  0  0  0  0  0  0  0  0  0  0  0
    0.8935  -10.4053   15.4964 C   0  0  0  0  0  0  0  0  0  0  0  0
   11.3489   -4.1559   23.7679 O   0  0  0  0  0  0  0  0  0  0  0  0
    8.7270   -6.9176   17.6911 C   0  0  0  0  0  0  0  0  0  0  0  0
    4.1772   -8.9072   15.7882 C   0  0  0  0  0  0  0  0  0  0  0  0
    9.2670   -5.3614   16.3403 C   0  0  0  0  0  0  0  0  0  0  0  0
    8.4829   -7.0205   17.0055 N   0  0  0  0  0  0  0  0  0  0  0  0
    2.4798   -9.2535   18.1579 O   0  0  0  0  0  0  0  0  0  0  0  0
   10.7905   -5.2013   19.6778 O   0  0  0  0  0  0  0  0  0  0  0  0
    7.0188   -6.6496   14.9912 C   0  0  0  0  0  0  0  0  0  0  0  0
    1.6993  -10.0857   14.3476 C   0  0  0  0  0  0  0  0  0  0  0  0
    0.7869  -10.1440   15.8162 C   0  0  0  0  0  0  0  0  0  0  0  0
    8.6338   -4.8326   17.3910 O   0  0  0  0  0  0  0  0  0  0  0  0
    2.0917   -9.8298   16.3107 C   0  0  0  0  0  0  0  0  0  0  0  0
    9.2244   -8.3790   17.0759 O   0  0  0  0  0  0  0  0  0  0  0  0
   10.5733   -4.3877   19.8082 C   0  0  0  0  0  0  0  0  0  0  0  0
    7.0582  -10.0194   12.8937 He  0  0  0  0  0  0  0  0  0  0  0  0
    3.0132   -8.9446   14.9722 He  0  0  0  0  0  0  0  0  0  0  0  0
    3.0538  -10.5623   15.7525 He  0  0  0  0  0  0  0  0  0  0  0  0
    7.7600   -7.8928   16.7513 He  0  0  0  0  0  0  0  0  0  0  0  0
    4.5622   -8.1233   17.4900 He  0  0  0  0  0  0  0  0  0  0  0  0
   -0.2800  -10.4968   14.4345 He  0  0  0  0  0  0  0  0  0  0  0  0
    7.5815   -9.1341   17.7405 He  0  0  0  0  0  0  0  0  0  0  0  0
    9.1218   -3.7070   20.1616 He  0  0  0  0  0  0  0  0  0  0  0  0
    9.8099   -2.6345   20.1891 He  0  0  0  0  0  0  0  0  0  0  0  0
   10.4125   -2.4718   23.8933 He  0  0  0  0  0  0  0  0  0  0  0  0
   10.9280   -5.3556   22.2758 He  0  0  0  0  0  0  0  0  0  0  0  0
   10.5983   -5.4104   21.1147 He  0  0  0  0  0  0  0  0  0  0  0  0
    2.7757   -9.3438   16.2455 He  0  0  0  0  0  0  0  0  0  0  0  0
    6.5299   -9.8549   18.5743 He  0  0  0  0  0  0  0  0  0  0  0  0
    7.6868   -7.2415   17.1538 He  0  0  0  0  0  0  0  0  0  0  0  0
  1  6  1  0
  1  8  1  0
  1  9  2  0
  1 16  2  0
  1 18  3  0
  1 19  4  0
  2  8  3  0
  2 10  2  0
  3  6  3  0
  3  8  3  0
  3 11  4  0
  3 13  3  0
  3 14  2  0
  3 15  3  0
  3 17  4  0
  4  6  1  0
  4  7  2  0
  4  8  1  0
  4 13  3  0
  4 14  4  0
  4 16  1  0
  5 11  4  0
  5 13  4  0
  5 14  3  0
  5 16  1  0
  5 17  2  0
  5 18  2  0
  6 15  2  0
  6 17  1  0
  6 19  1  0
  7 13  2  0
  9 10  4  0
  9 16  4  0
 10 12  1  0
 10 13  2  0
 10 14  3  0
 10 15  2  0
 10 16  1  0
 10 17  1  0
 10 18  2  0
 11 13  3  0
 11 14  3  0
 11 15  2  0
 11 16  3  0
 11 19  1  0
 12 16  1  0
 12 19  4  0
 13 14  1  0
 13 16  4  0
 13 17  2  0
 13 18  3  0
 14 15  4  0
 14 18  2  0
 15 18  1  0
 16 17  3  0
 17 18  1  0
 18 19  4  0
M  END
$$$$

 Created by Python create_sdf_string function

 34 10  0  0  0  0  0  0  0  0999 V2000
   10.0936   -5.4152   18.5771 C   0  0  0  0  0  0  0  0  0  0  0  0
   10.8149   -3.2040   23.1558 C   0  0  0  0  0  0  0  0  0  0  0  0
    6.9362   -9.4217   14.7550 O   0  0  0  0  0  0  0  0  0  0  0  0
    3.3331   -9.5658   17.6854 C   0  0  0  0  0  0  0  0  0  0  0  0
    3.0773   -8.9840   15.2071 C   0  0  0  0  0  0  0  0  0  0  0  0
   10.1878   -4.4511   16.8170 C   0  0  0  0  0  0  0  0  0  0  0  0
    0.3693  -10.2178   15.6031 C   0  0  0  0  0  0  0  0  0  0  0  0
   11.2536   -4.1701   23.8955 O   0  0  0  0  0  0  0  0  0  0  0  0
    8.7720   -7.0276   17.8054 C   0  0  0  0  0  0  0  0  0  0  0  0
    2.4260   -9.3134   15.7474 C   0  0  0  0  0  0  0  0  0  0  0  0
    4.5189   -8.6326   15.7273 C   0  0  0  0  0  0  0  0  0  0  0  0
    7.4507   -7.6912   16.3981 C   0  0  0  0  0  0  0  0  0  0  0  0
    4.9955   -8.5742   16.9062 C   0  0  0  0  0  0  0  0  0  0  0  0
    9.1620   -5.0956   16.2597 C   0  0  0  0  0  0  0  0  0  0  0  0
    8.4773   -6.7068   16.8991 C   0  0  0  0  0  0  0  0  0  0  0  0
   -0.2929  -10.4246   14.5307 C   0  0  0  0  0  0  0  0  0  0  0  0
    7.0346   -8.4321   17.5366 C   0  0  0  0  0  0  0  0  0  0  0  0
   10.1645   -4.0476   20.3694 C   0  0  0  0  0  0  0  0  0  0  0  0
    3.0138   -9.6678   17.6115 C   0  0  0  0  0  0  0  0  0  0  0  0
   10.6302   -4.9887   19.4434 C   0  0  0  0  0  0  0  0  0  0  0  0
    6.9409   -7.0159   15.2721 C   0  0  0  0  0  0  0  0  0  0  0  0
   10.4759   -3.3371   20.9625 C   0  0  0  0  0  0  0  0  0  0  0  0
   10.3454   -2.3479   23.5200 O   0  0  0  0  0  0  0  0  0  0  0  0
    1.1020   -9.6587   14.4051 C   0  0  0  0  0  0  0  0  0  0  0  0
   11.0135   -4.6182   21.9478 C   0  0  0  0  0  0  0  0  0  0  0  0
   10.8687   -4.9923   21.2863 C   0  0  0  0  0  0  0  0  0  0  0  0
    0.4115  -10.2042   15.5710 C   0  0  0  0  0  0  0  0  0  0  0  0
    9.6262   -4.9414   17.2041 C   0  0  0  0  0  0  0  0  0  0  0  0
    1.7933   -9.6753   16.4981 C   0  0  0  0  0  0  0  0  0  0  0  0
    2.8184   -9.1874   16.0100 C   0  0  0  0  0  0  0  0  0  0  0  0
    8.6707   -8.0251   17.1535 C   0  0  0  0  0  0  0  0  0  0  0  0
    6.0978   -8.6625   17.9673 C   0  0  0  0  0  0  0  0  0  0  0  0
    7.2999   -7.5608   16.8689 C   0  0  0  0  0  0  0  0  0  0  0  0
   10.6043   -4.4066   19.6359 C   0  0  0  0  0  0  0  0  0  0  0  0
  2  8  2  0
  2 23  1  0
  4 19  4  0
 11 13  4  0
 12 21  1  0
 12 33  1  0
 14 28  4  0
 17 32  1  0
 20 34  4  0
 25 26  4  0
M  END
$$$$

 Created by Python create_sdf_string function

 34 89  0  0  0  0  0  0  0  0999 V2000
   10.4642   -6.5970   19.8213 C   0  0  0  0  0  0  0  0  0  0  0  0
    2.6651   -9.7257   13.2681 N   0  0  0  0  0  0  0  0  0  0  0  0
   11.0499   -3.3998   14.7485 O   0  0  0  0  0  0  0  0  0  0  0  0
    0.6775  -10.0989   15.8634 Cl  0  0  0  0  0  0  0  0  0  0  0  0
   11.2856   -4.3288   23.7321 O   0  0  0  0  0  0  0  0  0  0  0  0
    8.3939   -7.5061   17.2753 C   0  0  0  0  0  0  0  0  0  0  0  0
    1.7540   -9.2325   15.7168 C   0  0  0  0  0  0  0  0  0  0  0  0
    3.6314   -8.9050   15.2970 C   0  0  0  0  0  0  0  0  0  0  0  0
    7.1051   -7.3135   16.1433 S   0  0  0  0  0  0  0  0  0  0  0  0
    2.5097   -7.6373   17.7192 F   0  0  0  0  0  0  0  0  0  0  0  0
    8.7663   -5.8285   16.1846 C   0  0  0  0  0  0  0  0  0  0  0  0
   10.3184   -5.1442   19.7980 C   0  0  0  0  0  0  0  0  0  0  0  0
    6.6523   -6.4576   15.2891 C   0  0  0  0  0  0  0  0  0  0  0  0
   10.1002   -1.5513   23.0933 O   0  0  0  0  0  0  0  0  0  0  0  0
    1.1815   -9.5583   14.2880 C   0  0  0  0  0  0  0  0  0  0  0  0
   12.2290   -4.6803   22.6357 O   0  0  0  0  0  0  0  0  0  0  0  0
   10.8184   -4.9126   21.2835 Br  0  0  0  0  0  0  0  0  0  0  0  0
    0.5493  -10.3318   15.2782 C   0  0  0  0  0  0  0  0  0  0  0  0
    2.2105  -10.2152   16.7021 P   0  0  0  0  0  0  0  0  0  0  0  0
    2.2364   -7.9545   16.4272 S   0  0  0  0  0  0  0  0  0  0  0  0
    6.9817   -8.3334   16.3895 O   0  0  0  0  0  0  0  0  0  0  0  0
    8.1232   -7.1832   15.5765 Cl  0  0  0  0  0  0  0  0  0  0  0  0
   10.5856   -4.8794   19.6292 C   0  0  0  0  0  0  0  0  0  0  0  0
   10.8501   -3.6151   23.2510 He  0  0  0  0  0  0  0  0  0  0  0  0
    5.6342   -9.5716   14.0886 He  0  0  0  0  0  0  0  0  0  0  0  0
    3.1538   -9.1239   18.5250 He  0  0  0  0  0  0  0  0  0  0  0  0
    9.6659   -7.4451   16.3470 He  0  0  0  0  0  0  0  0  0  0  0  0
   -1.4077  -10.8249   13.9881 He  0  0  0  0  0  0  0  0  0  0  0  0
    7.0752   -8.6609   17.5172 He  0  0  0  0  0  0  0  0  0  0  0  0
   10.4878   -3.7644   19.2461 He  0  0  0  0  0  0  0  0  0  0  0  0
    1.7481  -10.2874   18.3499 He  0  0  0  0  0  0  0  0  0  0  0  0
   10.5906   -4.1208   21.2060 He  0  0  0  0  0  0  0  0  0  0  0  0
    9.5426   -4.0220   17.3840 He  0  0  0  0  0  0  0  0  0  0  0  0
    6.1479   -7.4282   18.6447 He  0  0  0  0  0  0  0  0  0  0  0  0
  1  2  2  0
  1  3  1  0
  1  5  3  0
  1  7  3  0
  1 11  4  0
  1 16  2  0
  1 18  3  0
  1 20  2  0
  1 23  3  0
  2  4  4  0
  2  5  4  0
  2  7  2  0
  2  8  1  0
  2  9  2  0
  2 11  2  0
  2 12  1  0
  2 15  1  0
  2 16  1  0
  2 20  2  0
  2 21  4  0
  3  4  3  0
  3  5  2  0
  3  8  2  0
  3 11  2  0
  3 12  2  0
  3 13  4  0
  3 15  4  0
  3 17  2  0
  3 21  3  0
  3 22  1  0
  4 10  4  0
  5  7  1  0
  5  9  4  0
  5 10  3  0
  5 13  3  0
  5 16  4  0
  5 20  1  0
  5 22  4  0
  6  9  3  0
  6 16  1  0
  6 20  1  0
  7  8  4  0
  7 16  1  0
  7 17  1  0
  7 18  4  0
  7 20  4  0
  7 21  4  0
  7 22  1  0
  7 23  4  0
  8 10  3  0
  8 14  4  0
  8 16  4  0
  8 19  1  0
  8 21  3  0
  9 11  1  0
  9 15  2  0
  9 18  3  0
  9 19  4  0
  9 22  4  0
  9 23  2  0
 10 11  1  0
 10 12  4  0
 10 13  1  0
 10 17  4  0
 10 21  4  0
 11 18  3  0
 12 15  1  0
 12 16  3  0
 12 18  3  0
 12 20  4  0
 12 21  3  0
 12 22  2  0
 13 15  1  0
 13 16  2  0
 14 16  1  0
 14 21  4  0
 14 22  1  0
 15 20  4  0
 15 21  3  0
 16 19  3  0
 16 20  3  0
 16 22  4  0
 18 20  1  0
 18 22  2  0
 19 21  4  0
 19 22  4  0
 20 22  3  0
 21 22  2  0
 22 23  4  0
M  END
$$$$

 Created by Python create_sdf_string function

 34 11  0  0  0  0  0  0  0  0999 V2000
   10.1803   -6.1142   19.0011 C   0  0  0  0  0  0  0  0  0  0  0  0
   10.9288   -3.5140   23.1335 C   0  0  0  0  0  0  0  0  0  0  0  0
    5.1836   -8.5217   15.2110 C   0  0  0  0  0  0  0  0  0  0  0  0
    3.4923   -9.3881   17.6818 C   0  0  0  0  0  0  0  0  0  0  0  0
    1.5699   -9.3527   14.2948 C   0  0  0  0  0  0  0  0  0  0  0  0
   10.2952   -3.9852   16.1968 C   0  0  0  0  0  0  0  0  0  0  0  0
    0.4455  -10.2139   16.0793 C   0  0  0  0  0  0  0  0  0  0  0  0
   11.1424   -4.1675   24.0224 O   0  0  0  0  0  0  0  0  0  0  0  0
    8.5823   -7.4895   17.5234 C   0  0  0  0  0  0  0  0  0  0  0  0
    1.6134   -9.5316   15.7687 C   0  0  0  0  0  0  0  0  0  0  0  0
    3.6694   -8.8444   15.2612 C   0  0  0  0  0  0  0  0  0  0  0  0
    6.9850   -7.3820   15.9545 C   0  0  0  0  0  0  0  0  0  0  0  0
    3.3262   -8.5701   17.2043 C   0  0  0  0  0  0  0  0  0  0  0  0
    9.1252   -5.5166   16.2887 C   0  0  0  0  0  0  0  0  0  0  0  0
    9.1046   -6.4103   17.1909 C   0  0  0  0  0  0  0  0  0  0  0  0
   -0.5876  -10.5598   14.2432 C   0  0  0  0  0  0  0  0  0  0  0  0
    6.9761   -8.1477   17.3566 C   0  0  0  0  0  0  0  0  0  0  0  0
   10.6395   -3.8643   19.0324 C   0  0  0  0  0  0  0  0  0  0  0  0
    1.5593  -10.2879   17.9722 C   0  0  0  0  0  0  0  0  0  0  0  0
   10.5090   -4.9640   19.3921 C   0  0  0  0  0  0  0  0  0  0  0  0
    6.5140   -6.5681   15.2070 C   0  0  0  0  0  0  0  0  0  0  0  0
   10.7563   -3.8859   20.8164 C   0  0  0  0  0  0  0  0  0  0  0  0
   10.3399   -2.3755   23.2365 O   0  0  0  0  0  0  0  0  0  0  0  0
    0.7262   -9.7533   14.1927 C   0  0  0  0  0  0  0  0  0  0  0  0
   11.7405   -4.4150   22.4324 O   0  0  0  0  0  0  0  0  0  0  0  0
   10.9144   -4.5788   21.4085 C   0  0  0  0  0  0  0  0  0  0  0  0
    0.3531  -10.1791   15.5519 C   0  0  0  0  0  0  0  0  0  0  0  0
   10.1293   -4.4704   17.2127 C   0  0  0  0  0  0  0  0  0  0  0  0
    1.8202   -9.7674   17.0418 C   0  0  0  0  0  0  0  0  0  0  0  0
    2.8280   -8.8702   16.4328 C   0  0  0  0  0  0  0  0  0  0  0  0
    6.3599   -8.1488   16.3163 C   0  0  0  0  0  0  0  0  0  0  0  0
    6.1989   -8.1052   18.0292 C   0  0  0  0  0  0  0  0  0  0  0  0
    7.8573   -6.9543   15.8231 C   0  0  0  0  0  0  0  0  0  0  0  0
   10.6737   -5.0492   19.5736 C   0  0  0  0  0  0  0  0  0  0  0  0
  1 20  4  0
  1 34  4  0
  2  8  2  0
  2 23  1  0
  2 25  1  0
  5 24  4  0
  9 15  4  0
 12 33  4  0
 14 15  4  0
 19 29  4  0
 22 26  4  0
M  END
$$$$

 Created by Python create_sdf_string function

 34108  0  0  0  0  0  0  0  0999 V2000
    9.9612   -5.0432   20.0887 N   0  0  0  0  0  0  0  0  0  0  0  0
   10.3437   -3.0555   23.1242 C   0  0  0  0  0  0  0  0  0  0  0  0
    3.8612   -7.9849   14.8901 Cl  0  0  0  0  0  0  0  0  0  0  0  0
    2.5466  -10.0656   15.7454 C   0  0  0  0  0  0  0  0  0  0  0  0
    1.6699   -7.4037   13.9781 C   0  0  0  0  0  0  0  0  0  0  0  0
    0.8070  -10.3744   16.2670 C   0  0  0  0  0  0  0  0  0  0  0  0
    8.7684   -7.6291   17.8167 C   0  0  0  0  0  0  0  0  0  0  0  0
    2.3062   -8.6817   16.2710 I   0  0  0  0  0  0  0  0  0  0  0  0
    3.5247   -8.7025   15.5968 C   0  0  0  0  0  0  0  0  0  0  0  0
    6.9408   -6.3473   14.9355 B   0  0  0  0  0  0  0  0  0  0  0  0
    3.7569   -9.8374   16.8924 C   0  0  0  0  0  0  0  0  0  0  0  0
    8.9238   -5.2434   16.3643 N   0  0  0  0  0  0  0  0  0  0  0  0
   -1.9378  -10.6000   12.5534 C   0  0  0  0  0  0  0  0  0  0  0  0
    6.3578   -8.9019   17.2119 Se  0  0  0  0  0  0  0  0  0  0  0  0
    2.5573   -9.6408   17.7193 C   0  0  0  0  0  0  0  0  0  0  0  0
   10.8726   -4.4491   19.9139 C   0  0  0  0  0  0  0  0  0  0  0  0
    6.7996   -6.2302   15.5521 C   0  0  0  0  0  0  0  0  0  0  0  0
   10.6329   -2.3234   22.9817 O   0  0  0  0  0  0  0  0  0  0  0  0
    0.6024   -9.7239   14.1969 P   0  0  0  0  0  0  0  0  0  0  0  0
   12.3941   -4.8593   20.8244 I   0  0  0  0  0  0  0  0  0  0  0  0
   10.6299   -5.0912   21.9050 C   0  0  0  0  0  0  0  0  0  0  0  0
    0.0771   -9.5473   14.8035 C   0  0  0  0  0  0  0  0  0  0  0  0
    1.9882   -9.6801   16.3087 C   0  0  0  0  0  0  0  0  0  0  0  0
    2.6488   -9.1254   16.6243 F   0  0  0  0  0  0  0  0  0  0  0  0
    6.4989   -7.1579   17.8156 C   0  0  0  0  0  0  0  0  0  0  0  0
   10.5955   -5.0019   19.5814 C   0  0  0  0  0  0  0  0  0  0  0  0
    9.1208   -2.9136   17.6148 He  0  0  0  0  0  0  0  0  0  0  0  0
   10.7171   -4.4083   24.2429 He  0  0  0  0  0  0  0  0  0  0  0  0
    8.7035   -5.8350   16.3897 He  0  0  0  0  0  0  0  0  0  0  0  0
    9.9456   -4.7601   20.8563 He  0  0  0  0  0  0  0  0  0  0  0  0
   11.1790   -1.7761   20.9828 He  0  0  0  0  0  0  0  0  0  0  0  0
   11.7416   -4.8438   16.8473 He  0  0  0  0  0  0  0  0  0  0  0  0
    6.5405   -7.4405   16.4008 He  0  0  0  0  0  0  0  0  0  0  0  0
    8.4555   -6.5550   15.4321 He  0  0  0  0  0  0  0  0  0  0  0  0
  1  2  1  0
  1  9  1  0
  1 10  4  0
  1 15  1  0
  1 16  3  0
  1 18  4  0
  1 19  3  0
  1 21  1  0
  1 22  3  0
  1 23  2  0
  1 24  1  0
  1 25  2  0
  2  3  1  0
  2  5  1  0
  2  8  2  0
  2 14  2  0
  2 18  1  0
  3  6  3  0
  3 10  3  0
  3 11  1  0
  3 14  1  0
  3 15  3  0
  3 16  1  0
  3 19  4  0
  3 20  1  0
  3 22  1  0
  3 23  4  0
  3 25  1  0
  4  5  2  0
  4 13  3  0
  4 14  4  0
  4 15  1  0
  4 17  4  0
  4 18  1  0
  4 19  4  0
  4 23  4  0
  5  6  1  0
  5  8  1  0
  5 11  3  0
  5 16  4  0
  5 18  2  0
  5 21  2  0
  5 24  1  0
  5 25  4  0
  5 26  4  0
  6  8  3  0
  6  9  3  0
  6 11  4  0
  6 13  1  0
  6 14  2  0
  6 15  3  0
  7  9  1  0
  7 15  1  0
  7 25  1  0
  8 15  1  0
  8 17  1  0
  8 19  4  0
  8 26  2  0
  9 10  1  0
  9 11  2  0
  9 13  1  0
  9 16  1  0
  9 19  2  0
  9 20  4  0
  9 23  3  0
  9 25  3  0
 10 11  2  0
 10 13  3  0
 10 16  3  0
 10 19  2  0
 10 21  2  0
 10 24  1  0
 10 25  3  0
 11 12  4  0
 11 13  3  0
 11 15  1  0
 11 16  4  0
 11 17  3  0
 11 19  3  0
 11 21  1  0
 11 23  1  0
 12 14  3  0
 12 24  1  0
 13 15  4  0
 13 17  3  0
 13 18  1  0
 13 24  4  0
 14 21  2  0
 14 25  3  0
 15 18  2  0
 15 19  2  0
 15 20  1  0
 15 23  4  0
 16 17  3  0
 16 20  1  0
 16 22  1  0
 16 26  2  0
 17 18  2  0
 17 24  2  0
 18 26  2  0
 19 20  4  0
 19 25  3  0
 20 21  3  0
 20 23  2  0
 22 24  3  0
 23 25  1  0
 24 25  1  0
 25 26  1  0
M  END
$$$$

 Created by Python create_sdf_string function

 34 12  0  0  0  0  0  0  0  0999 V2000
   10.2672   -4.8285   19.4467 C   0  0  0  0  0  0  0  0  0  0  0  0
   10.8151   -3.1825   23.2573 C   0  0  0  0  0  0  0  0  0  0  0  0
    4.1142   -7.8478   15.5037 C   0  0  0  0  0  0  0  0  0  0  0  0
    1.1961   -9.7166   15.8643 C   0  0  0  0  0  0  0  0  0  0  0  0
    1.6133   -8.2228   14.4203 C   0  0  0  0  0  0  0  0  0  0  0  0
   10.4012   -3.7977   17.3880 C   0  0  0  0  0  0  0  0  0  0  0  0
    0.4055  -10.2941   15.9959 C   0  0  0  0  0  0  0  0  0  0  0  0
   10.9048   -3.9160   24.1240 O   0  0  0  0  0  0  0  0  0  0  0  0
    8.5985   -7.5188   18.0003 C   0  0  0  0  0  0  0  0  0  0  0  0
    2.4082   -8.7880   15.8065 C   0  0  0  0  0  0  0  0  0  0  0  0
    3.9389   -8.3023   15.9754 C   0  0  0  0  0  0  0  0  0  0  0  0
    6.8058   -6.5563   15.3475 C   0  0  0  0  0  0  0  0  0  0  0  0
    3.9749   -9.4460   17.3766 C   0  0  0  0  0  0  0  0  0  0  0  0
    9.1499   -5.2067   16.4878 N   0  0  0  0  0  0  0  0  0  0  0  0
    8.8529   -5.8935   16.7235 C   0  0  0  0  0  0  0  0  0  0  0  0
   -1.0456  -10.3990   13.6710 C   0  0  0  0  0  0  0  0  0  0  0  0
    6.1680   -8.4934   17.2446 C   0  0  0  0  0  0  0  0  0  0  0  0
   10.4473   -4.3527   20.3995 C   0  0  0  0  0  0  0  0  0  0  0  0
    2.5571   -9.9789   17.4375 C   0  0  0  0  0  0  0  0  0  0  0  0
   10.8767   -4.2932   19.6322 C   0  0  0  0  0  0  0  0  0  0  0  0
    6.9149   -6.5362   15.6486 C   0  0  0  0  0  0  0  0  0  0  0  0
   11.2143   -2.7887   21.4163 C   0  0  0  0  0  0  0  0  0  0  0  0
   10.5069   -2.2653   23.2867 O   0  0  0  0  0  0  0  0  0  0  0  0
    0.1381   -9.8874   14.2802 C   0  0  0  0  0  0  0  0  0  0  0  0
   11.6166   -4.4200   20.7563 C   0  0  0  0  0  0  0  0  0  0  0  0
   11.0685   -4.7091   21.8750 C   0  0  0  0  0  0  0  0  0  0  0  0
    0.1232   -9.5590   14.4049 C   0  0  0  0  0  0  0  0  0  0  0  0
   10.8479   -4.4525   17.1048 C   0  0  0  0  0  0  0  0  0  0  0  0
    1.9125   -9.6173   16.5435 C   0  0  0  0  0  0  0  0  0  0  0  0
    2.7636   -9.0920   16.3863 C   0  0  0  0  0  0  0  0  0  0  0  0
    6.3196   -7.8264   16.6122 C   0  0  0  0  0  0  0  0  0  0  0  0
    7.1307   -7.6900   17.6326 C   0  0  0  0  0  0  0  0  0  0  0  0
    8.2094   -6.7075   15.9663 C   0  0  0  0  0  0  0  0  0  0  0  0
   10.8331   -5.0936   19.1977 C   0  0  0  0  0  0  0  0  0  0  0  0
  2  8  2  0
  2 23  1  0
  3 11  1  0
  4 29  4  0
  6 28  2  0
  9 32  1  0
 12 21  1  0
 14 15  1  0
 16 24  1  0
 17 31  1  0
 19 29  4  0
 20 34  4  0
M  END
$$$$

 Created by Python create_sdf_string function

 34 97  0  0  0  0  0  0  0  0999 V2000
    9.0843   -5.3745   18.5314 F   0  0  0  0  0  0  0  0  0  0  0  0
   10.8491   -2.7901   23.2536 C   0  0  0  0  0  0  0  0  0  0  0  0
    4.6303   -7.0641   14.3616 P   0  0  0  0  0  0  0  0  0  0  0  0
    0.7510   -9.6831   16.2719 O   0  0  0  0  0  0  0  0  0  0  0  0
    2.5382   -7.8311   13.2070 N   0  0  0  0  0  0  0  0  0  0  0  0
    8.9594   -2.8540   17.2032 N   0  0  0  0  0  0  0  0  0  0  0  0
    0.2681  -10.0114   16.3993 C   0  0  0  0  0  0  0  0  0  0  0  0
   11.2141   -4.3908   23.2039 O   0  0  0  0  0  0  0  0  0  0  0  0
    8.5987   -7.4658   18.2062 C   0  0  0  0  0  0  0  0  0  0  0  0
    4.3805   -7.4649   15.8908 C   0  0  0  0  0  0  0  0  0  0  0  0
    9.0347   -4.6223   16.3715 N   0  0  0  0  0  0  0  0  0  0  0  0
    6.0643   -8.1964   16.9013 O   0  0  0  0  0  0  0  0  0  0  0  0
    1.3998  -10.3475   19.0209 F   0  0  0  0  0  0  0  0  0  0  0  0
   10.8727   -3.9431   19.5694 C   0  0  0  0  0  0  0  0  0  0  0  0
    7.1448   -7.0467   15.9769 C   0  0  0  0  0  0  0  0  0  0  0  0
   10.0520   -2.3727   23.6045 O   0  0  0  0  0  0  0  0  0  0  0  0
   -0.3635   -9.9046   14.5465 S   0  0  0  0  0  0  0  0  0  0  0  0
   11.5156   -4.9069   22.3876 N   0  0  0  0  0  0  0  0  0  0  0  0
    0.1350   -9.8740   14.4370 C   0  0  0  0  0  0  0  0  0  0  0  0
   10.3759   -4.4269   17.7164 C   0  0  0  0  0  0  0  0  0  0  0  0
    2.2050   -9.3735   17.2203 C   0  0  0  0  0  0  0  0  0  0  0  0
    2.8034   -9.7813   17.5650 C   0  0  0  0  0  0  0  0  0  0  0  0
    7.4028   -8.0692   15.0499 C   0  0  0  0  0  0  0  0  0  0  0  0
   10.5758   -5.0869   19.2196 C   0  0  0  0  0  0  0  0  0  0  0  0
    2.8200   -6.7339   15.5540 He  0  0  0  0  0  0  0  0  0  0  0  0
    7.9759   -5.5821   16.7530 He  0  0  0  0  0  0  0  0  0  0  0  0
    3.9938   -9.4902   15.5596 He  0  0  0  0  0  0  0  0  0  0  0  0
    7.5084   -5.0348   18.7939 He  0  0  0  0  0  0  0  0  0  0  0  0
   -0.8091  -11.1606   14.8468 He  0  0  0  0  0  0  0  0  0  0  0  0
    9.5210   -5.4073   20.1629 He  0  0  0  0  0  0  0  0  0  0  0  0
   11.1021   -1.6433   20.6230 He  0  0  0  0  0  0  0  0  0  0  0  0
   11.7858   -4.6527   20.6826 He  0  0  0  0  0  0  0  0  0  0  0  0
    7.6041   -8.8547   16.8753 He  0  0  0  0  0  0  0  0  0  0  0  0
    7.8882   -7.1114   15.1526 He  0  0  0  0  0  0  0  0  0  0  0  0
  1  2  2  0
  1  3  1  0
  1  4  3  0
  1  6  4  0
  1  7  2  0
  1 16  2  0
  1 17  4  0
  1 18  2  0
  1 20  3  0
  1 21  1  0
  1 23  2  0
  2  4  2  0
  2  5  4  0
  2  8  2  0
  2 16  1  0
  2 22  4  0
  3  4  2  0
  3  5  4  0
  3  6  4  0
  3  8  2  0
  3  9  2  0
  3 10  4  0
  3 14  2  0
  3 15  1  0
  3 16  2  0
  3 18  1  0
  3 19  1  0
  3 20  4  0
  3 21  2  0
  4  5  1  0
  4  6  3  0
  4  8  4  0
  4 11  3  0
  4 12  2  0
  4 14  3  0
  4 15  3  0
  4 16  1  0
  5  8  2  0
  5 11  4  0
  5 12  1  0
  5 15  1  0
  5 17  2  0
  5 19  3  0
  5 20  2  0
  5 21  2  0
  6  7  2  0
  6  8  3  0
  6 11  4  0
  6 13  2  0
  6 17  2  0
  6 18  3  0
  6 19  4  0
  6 20  3  0
  6 23  3  0
  7 12  4  0
  7 13  4  0
  7 14  4  0
  7 18  4  0
  7 20  3  0
  7 22  3  0
  8 15  1  0
  8 23  1  0
  9 12  3  0
  9 14  3  0
  9 20  4  0
  9 22  2  0
  9 23  2  0
 10 17  4  0
 10 22  3  0
 11 12  3  0
 11 13  1  0
 11 18  4  0
 11 21  2  0
 11 23  2  0
 12 14  2  0
 12 18  4  0
 12 23  2  0
 12 24  4  0
 13 18  4  0
 13 19  4  0
 13 21  1  0
 14 15  1  0
 14 21  2  0
 14 22  2  0
 14 24  4  0
 15 18  4  0
 15 22  1  0
 16 19  2  0
 17 22  2  0
 18 21  4  0
 18 22  4  0
 18 24  2  0
 19 20  2  0
 19 22  3  0
 19 23  4  0
 22 23  1  0
 23 24  3  0
M  END
$$$$

 Created by Python create_sdf_string function

 34 12  0  0  0  0  0  0  0  0999 V2000
    9.6432   -5.4532   18.2523 C   0  0  0  0  0  0  0  0  0  0  0  0
   10.8297   -3.0713   23.0402 C   0  0  0  0  0  0  0  0  0  0  0  0
    5.1012   -7.4162   15.2138 C   0  0  0  0  0  0  0  0  0  0  0  0
    0.9477   -9.8242   15.9935 C   0  0  0  0  0  0  0  0  0  0  0  0
    2.1718   -8.3575   14.6924 C   0  0  0  0  0  0  0  0  0  0  0  0
   10.0038   -3.9603   16.8031 C   0  0  0  0  0  0  0  0  0  0  0  0
    0.3088  -10.4836   16.5734 C   0  0  0  0  0  0  0  0  0  0  0  0
   11.1257   -4.1473   23.6240 O   0  0  0  0  0  0  0  0  0  0  0  0
    8.6068   -7.5485   18.0483 C   0  0  0  0  0  0  0  0  0  0  0  0
    3.1087   -7.5597   15.4376 C   0  0  0  0  0  0  0  0  0  0  0  0
    4.4491   -7.6680   15.7235 C   0  0  0  0  0  0  0  0  0  0  0  0
    8.3990   -6.1077   16.7790 C   0  0  0  0  0  0  0  0  0  0  0  0
    3.3347   -8.6363   16.0393 C   0  0  0  0  0  0  0  0  0  0  0  0
    9.1453   -4.4797   16.0994 N   0  0  0  0  0  0  0  0  0  0  0  0
    8.8033   -6.0468   17.9972 C   0  0  0  0  0  0  0  0  0  0  0  0
   -0.6416  -10.7450   15.3542 C   0  0  0  0  0  0  0  0  0  0  0  0
    5.8930   -8.2677   17.0335 C   0  0  0  0  0  0  0  0  0  0  0  0
   10.3925   -5.0782   19.8249 C   0  0  0  0  0  0  0  0  0  0  0  0
    1.1215  -10.5735   17.9855 C   0  0  0  0  0  0  0  0  0  0  0  0
   11.0251   -3.7764   19.5304 C   0  0  0  0  0  0  0  0  0  0  0  0
    7.0309   -7.1776   15.9567 C   0  0  0  0  0  0  0  0  0  0  0  0
   11.1793   -2.8492   21.3307 C   0  0  0  0  0  0  0  0  0  0  0  0
   10.1736   -2.3126   23.4822 O   0  0  0  0  0  0  0  0  0  0  0  0
   -0.1364  -10.0969   14.6512 C   0  0  0  0  0  0  0  0  0  0  0  0
   11.2932   -4.2927   20.9610 C   0  0  0  0  0  0  0  0  0  0  0  0
   11.3259   -4.7900   21.5323 C   0  0  0  0  0  0  0  0  0  0  0  0
    0.4779   -9.7099   14.7027 C   0  0  0  0  0  0  0  0  0  0  0  0
   10.3334   -4.1937   17.7514 C   0  0  0  0  0  0  0  0  0  0  0  0
    2.1028   -9.6696   17.1450 C   0  0  0  0  0  0  0  0  0  0  0  0
    2.3732   -9.6645   17.1772 C   0  0  0  0  0  0  0  0  0  0  0  0
    7.0693   -7.9404   15.6947 C   0  0  0  0  0  0  0  0  0  0  0  0
    7.2723   -8.3859   17.0337 C   0  0  0  0  0  0  0  0  0  0  0  0
    7.7323   -6.8074   15.7098 C   0  0  0  0  0  0  0  0  0  0  0  0
   10.6339   -4.8471   19.4837 C   0  0  0  0  0  0  0  0  0  0  0  0
  2  8  2  0
  2 22  1  0
  2 23  1  0
  3 11  4  0
  4  7  4  0
  6 14  4  0
  6 28  4  0
  7 19  4  0
 16 24  4  0
 20 34  4  0
 25 26  4  0
 29 30  4  0
M  END
$$$$

 Created by Python create_sdf_string function

 34 73  0  0  0  0  0  0  0  0999 V2000
   10.1946   -3.3602   18.0552 N   0  0  0  0  0  0  0  0  0  0  0  0
   10.3150   -2.7948   23.3639 S   0  0  0  0  0  0  0  0  0  0  0  0
    6.8374   -8.0406   16.5568 C   0  0  0  0  0  0  0  0  0  0  0  0
    1.6943   -9.0202   14.8809 N   0  0  0  0  0  0  0  0  0  0  0  0
    0.0979  -10.3091   16.2590 O   0  0  0  0  0  0  0  0  0  0  0  0
   11.5981   -3.8202   23.7550 O   0  0  0  0  0  0  0  0  0  0  0  0
    3.7734   -8.7772   16.1309 O   0  0  0  0  0  0  0  0  0  0  0  0
    4.0111   -8.0401   15.5770 C   0  0  0  0  0  0  0  0  0  0  0  0
    9.4185   -4.8936   15.6217 Cl  0  0  0  0  0  0  0  0  0  0  0  0
    8.3086   -4.7269   17.0465 N   0  0  0  0  0  0  0  0  0  0  0  0
   -2.0196  -10.0963   16.1284 Cl  0  0  0  0  0  0  0  0  0  0  0  0
   10.7204   -6.3510   19.7201 C   0  0  0  0  0  0  0  0  0  0  0  0
    0.9215  -10.2802   18.3760 S   0  0  0  0  0  0  0  0  0  0  0  0
    7.0778   -6.7167   16.0184 C   0  0  0  0  0  0  0  0  0  0  0  0
    0.1520   -9.7062   15.1296 C   0  0  0  0  0  0  0  0  0  0  0  0
   12.4253   -3.8433   21.4172 C   0  0  0  0  0  0  0  0  0  0  0  0
    0.0945   -9.5332   14.9120 C   0  0  0  0  0  0  0  0  0  0  0  0
   12.0970   -5.3510   17.6260 N   0  0  0  0  0  0  0  0  0  0  0  0
    6.0211   -7.2653   16.2226 N   0  0  0  0  0  0  0  0  0  0  0  0
    6.8025   -8.2081   17.8714 F   0  0  0  0  0  0  0  0  0  0  0  0
    7.0013   -6.6047   14.7349 C   0  0  0  0  0  0  0  0  0  0  0  0
   10.8064   -5.5926   19.2169 C   0  0  0  0  0  0  0  0  0  0  0  0
    1.2396   -7.8833   14.9487 He  0  0  0  0  0  0  0  0  0  0  0  0
    8.5883   -4.4084   17.0544 He  0  0  0  0  0  0  0  0  0  0  0  0
    8.8049   -7.5268   18.1116 He  0  0  0  0  0  0  0  0  0  0  0  0
    8.7473   -6.2311   18.6755 He  0  0  0  0  0  0  0  0  0  0  0  0
    4.7986   -7.6233   15.6987 He  0  0  0  0  0  0  0  0  0  0  0  0
    7.1427   -7.1560   16.1098 He  0  0  0  0  0  0  0  0  0  0  0  0
   10.1405   -3.5741   18.8994 He  0  0  0  0  0  0  0  0  0  0  0  0
   10.3111   -2.7326   21.3466 He  0  0  0  0  0  0  0  0  0  0  0  0
   10.6571   -2.3356   23.6516 He  0  0  0  0  0  0  0  0  0  0  0  0
   10.9401   -4.8210   21.2219 He  0  0  0  0  0  0  0  0  0  0  0  0
    2.0506   -9.9186   17.0046 He  0  0  0  0  0  0  0  0  0  0  0  0
    1.3353   -9.1953   15.0819 He  0  0  0  0  0  0  0  0  0  0  0  0
  1  5  2  0
  1  7  1  0
  1 11  1  0
  1 14  1  0
  1 16  4  0
  1 21  2  0
  2  6  2  0
  2 10  3  0
  2 12  3  0
  2 13  1  0
  2 16  4  0
  2 20  2  0
  2 21  1  0
  3  4  2  0
  3  6  2  0
  3 11  4  0
  3 12  2  0
  3 15  3  0
  3 17  4  0
  3 19  3  0
  3 21  1  0
  4  9  4  0
  4 17  3  0
  4 20  4  0
  4 21  4  0
  5  7  1  0
  5 12  1  0
  5 14  1  0
  5 19  4  0
  6 12  2  0
  6 13  4  0
  6 19  4  0
  6 21  4  0
  7 14  2  0
  7 15  2  0
  7 18  1  0
  7 19  4  0
  7 22  3  0
  8 16  1  0
  8 18  2  0
  8 21  2  0
  9 12  4  0
  9 13  2  0
  9 20  4  0
  9 22  4  0
 10 11  3  0
 10 12  4  0
 10 13  2  0
 10 20  1  0
 11 12  1  0
 11 15  1  0
 11 19  1  0
 12 15  1  0
 12 19  4  0
 13 14  2  0
 13 15  2  0
 13 17  2  0
 13 20  4  0
 13 21  4  0
 14 17  3  0
 15 16  1  0
 15 17  3  0
 16 17  4  0
 16 21  4  0
 16 22  4  0
 17 20  2  0
 17 21  1  0
 18 21  4  0
 19 20  4  0
 19 22  2  0
 20 21  2  0
 20 22  1  0
 21 22  1  0
M  END
$$$$

 Created by Python create_sdf_string function

 34 12  0  0  0  0  0  0  0  0999 V2000
   10.6559   -3.6541   18.1009 C   0  0  0  0  0  0  0  0  0  0  0  0
   10.9263   -3.0980   23.1497 C   0  0  0  0  0  0  0  0  0  0  0  0
    6.7694   -8.1273   16.5386 C   0  0  0  0  0  0  0  0  0  0  0  0
    2.1621   -8.8005   15.4443 C   0  0  0  0  0  0  0  0  0  0  0  0
    1.5592   -8.5193   14.8419 C   0  0  0  0  0  0  0  0  0  0  0  0
    9.4902   -4.7387   16.7583 C   0  0  0  0  0  0  0  0  0  0  0  0
   -0.0324  -10.5350   16.8713 C   0  0  0  0  0  0  0  0  0  0  0  0
   11.3674   -3.7849   23.8573 O   0  0  0  0  0  0  0  0  0  0  0  0
    8.9033   -7.5702   18.0575 C   0  0  0  0  0  0  0  0  0  0  0  0
    3.5216   -8.6254   16.3905 C   0  0  0  0  0  0  0  0  0  0  0  0
    4.0146   -8.1400   15.6441 C   0  0  0  0  0  0  0  0  0  0  0  0
    9.3264   -6.4966   18.0149 C   0  0  0  0  0  0  0  0  0  0  0  0
    4.6928   -7.9723   15.8596 C   0  0  0  0  0  0  0  0  0  0  0  0
    9.5772   -4.3780   16.1383 C   0  0  0  0  0  0  0  0  0  0  0  0
    9.0445   -5.3353   16.8933 N   0  0  0  0  0  0  0  0  0  0  0  0
   -1.2741  -10.5723   16.0127 C   0  0  0  0  0  0  0  0  0  0  0  0
    7.3450   -7.3696   16.5040 C   0  0  0  0  0  0  0  0  0  0  0  0
   10.5088   -5.9374   19.3808 C   0  0  0  0  0  0  0  0  0  0  0  0
    0.7877  -10.5053   17.7024 C   0  0  0  0  0  0  0  0  0  0  0  0
   10.7486   -3.8060   19.4062 C   0  0  0  0  0  0  0  0  0  0  0  0
    7.6092   -6.4910   16.1135 C   0  0  0  0  0  0  0  0  0  0  0  0
   10.7436   -3.3400   21.6077 C   0  0  0  0  0  0  0  0  0  0  0  0
   10.3763   -2.2629   23.4299 O   0  0  0  0  0  0  0  0  0  0  0  0
   -0.1756   -9.8671   15.3710 C   0  0  0  0  0  0  0  0  0  0  0  0
   11.6178   -4.2785   21.4824 C   0  0  0  0  0  0  0  0  0  0  0  0
   11.1549   -4.4701   21.1117 C   0  0  0  0  0  0  0  0  0  0  0  0
    0.0045   -9.5872   14.9473 C   0  0  0  0  0  0  0  0  0  0  0  0
   11.1763   -4.8386   17.8322 C   0  0  0  0  0  0  0  0  0  0  0  0
    1.7005   -9.7427   16.9816 C   0  0  0  0  0  0  0  0  0  0  0  0
    1.2833   -9.2749   15.7065 C   0  0  0  0  0  0  0  0  0  0  0  0
    5.4544   -7.9102   16.3701 C   0  0  0  0  0  0  0  0  0  0  0  0
    6.9649   -8.1756   17.6968 C   0  0  0  0  0  0  0  0  0  0  0  0
    6.8647   -6.7612   15.3392 C   0  0  0  0  0  0  0  0  0  0  0  0
   10.7205   -5.2075   19.4439 C   0  0  0  0  0  0  0  0  0  0  0  0
  2  8  2  0
  2 22  1  0
  2 23  1  0
  6 15  1  0
  7 19  4  0
  9 12  4  0
 16 24  1  0
 18 34  4  0
 21 33  4  0
 24 27  4  0
 25 26  1  0
 29 30  4  0
M  END
$$$$

 Created by Python create_sdf_string function

 34 92  0  0  0  0  0  0  0  0999 V2000
   11.1294   -2.5452   22.6464 C   0  0  0  0  0  0  0  0  0  0  0  0
    0.4241   -9.0723   15.4394 F   0  0  0  0  0  0  0  0  0  0  0  0
    0.0982  -10.4409   16.6894 C   0  0  0  0  0  0  0  0  0  0  0  0
   11.6073   -3.6100   24.0866 O   0  0  0  0  0  0  0  0  0  0  0  0
    9.2913   -7.3576   18.8131 O   0  0  0  0  0  0  0  0  0  0  0  0
    4.1482   -8.9989   16.3630 P   0  0  0  0  0  0  0  0  0  0  0  0
    4.3603   -8.6017   15.5796 C   0  0  0  0  0  0  0  0  0  0  0  0
    9.6091   -5.2291   18.7614 F   0  0  0  0  0  0  0  0  0  0  0  0
    3.9093   -6.6281   14.6645 S   0  0  0  0  0  0  0  0  0  0  0  0
    8.7429   -5.2874   18.2371 N   0  0  0  0  0  0  0  0  0  0  0  0
   10.4569   -3.2630   19.5074 O   0  0  0  0  0  0  0  0  0  0  0  0
    7.6638   -6.5658   16.3459 C   0  0  0  0  0  0  0  0  0  0  0  0
   11.0545   -3.6417   22.2583 Cl  0  0  0  0  0  0  0  0  0  0  0  0
   10.2959   -2.5611   22.9390 O   0  0  0  0  0  0  0  0  0  0  0  0
   -0.5003   -9.8009   15.1810 C   0  0  0  0  0  0  0  0  0  0  0  0
   11.4624   -2.9886   22.2939 C   0  0  0  0  0  0  0  0  0  0  0  0
   -0.0048   -9.2173   14.9235 C   0  0  0  0  0  0  0  0  0  0  0  0
   10.6820   -4.1726   16.3025 S   0  0  0  0  0  0  0  0  0  0  0  0
    1.6623   -9.7588   16.5517 C   0  0  0  0  0  0  0  0  0  0  0  0
    1.5042   -9.4878   16.3747 C   0  0  0  0  0  0  0  0  0  0  0  0
    7.0597   -9.7661   17.4871 S   0  0  0  0  0  0  0  0  0  0  0  0
    7.1570   -6.8986   17.1033 C   0  0  0  0  0  0  0  0  0  0  0  0
   10.8111   -5.5205   19.8633 C   0  0  0  0  0  0  0  0  0  0  0  0
   11.8037   -4.6379   19.1477 He  0  0  0  0  0  0  0  0  0  0  0  0
    8.2894   -7.9020   17.7010 He  0  0  0  0  0  0  0  0  0  0  0  0
    1.3595   -8.4156   14.1692 He  0  0  0  0  0  0  0  0  0  0  0  0
    9.1897   -5.0939   16.9609 He  0  0  0  0  0  0  0  0  0  0  0  0
    9.6831   -4.3318   16.3709 He  0  0  0  0  0  0  0  0  0  0  0  0
    9.9830   -6.7310   17.2484 He  0  0  0  0  0  0  0  0  0  0  0  0
   -1.3396   -9.9734   17.6400 He  0  0  0  0  0  0  0  0  0  0  0  0
    7.4852   -8.6045   15.9938 He  0  0  0  0  0  0  0  0  0  0  0  0
    1.2029   -9.1509   19.0497 He  0  0  0  0  0  0  0  0  0  0  0  0
   11.4144   -4.6005   20.9713 He  0  0  0  0  0  0  0  0  0  0  0  0
    5.5686   -8.0520   16.7382 He  0  0  0  0  0  0  0  0  0  0  0  0
  1  2  4  0
  1  4  2  0
  1  9  3  0
  1 10  3  0
  1 13  3  0
  1 14  1  0
  1 17  1  0
  1 18  1  0
  1 20  1  0
  1 22  1  0
  2  5  2  0
  2  8  4  0
  2 10  3  0
  2 13  2  0
  2 14  1  0
  2 16  3  0
  3 13  3  0
  3 20  1  0
  3 21  3  0
  3 22  2  0
  4  8  1  0
  4 16  1  0
  4 21  3  0
  5  8  4  0
  5  9  1  0
  5 10  1  0
  5 13  2  0
  5 16  2  0
  5 18  4  0
  5 19  2  0
  5 23  3  0
  6 11  1  0
  6 13  3  0
  6 14  3  0
  6 15  3  0
  6 17  3  0
  6 18  3  0
  6 19  4  0
  6 20  2  0
  6 23  2  0
  7  9  3  0
  7 10  3  0
  7 12  1  0
  7 15  4  0
  7 16  3  0
  7 18  2  0
  7 22  2  0
  8 13  3  0
  8 14  2  0
  8 15  2  0
  8 17  3  0
  8 18  4  0
  8 23  2  0
  9 10  1  0
  9 12  4  0
  9 15  4  0
  9 17  1  0
  9 18  2  0
 10 12  2  0
 10 15  2  0
 10 18  3  0
 10 20  3  0
 10 23  4  0
 11 17  3  0
 11 18  2  0
 11 22  3  0
 11 23  3  0
 12 15  3  0
 12 16  3  0
 12 21  4  0
 12 22  4  0
 13 19  3  0
 13 21  1  0
 13 22  4  0
 13 23  2  0
 14 22  4  0
 15 16  4  0
 15 17  4  0
 15 18  3  0
 15 22  4  0
 16 17  4  0
 16 18  1  0
 16 19  1  0
 16 20  2  0
 17 20  2  0
 17 21  2  0
 17 22  3  0
 18 20  3  0
 18 22  1  0
 19 23  2  0
 21 22  3  0
 21 23  1  0
M  END
$$$$

 Created by Python create_sdf_string function

 34 17  0  0  0  0  0  0  0  0999 V2000
   10.9852   -4.3395   19.2433 C   0  0  0  0  0  0  0  0  0  0  0  0
   11.0194   -2.9198   23.1124 C   0  0  0  0  0  0  0  0  0  0  0  0
    8.2081   -8.0009   17.5755 C   0  0  0  0  0  0  0  0  0  0  0  0
    0.8343   -9.2754   15.4800 C   0  0  0  0  0  0  0  0  0  0  0  0
    1.6982   -8.4778   14.7617 C   0  0  0  0  0  0  0  0  0  0  0  0
    9.5852   -4.7802   16.8692 C   0  0  0  0  0  0  0  0  0  0  0  0
   -0.2277  -10.4190   17.0579 C   0  0  0  0  0  0  0  0  0  0  0  0
   11.5641   -3.5751   24.1244 O   0  0  0  0  0  0  0  0  0  0  0  0
    9.6138   -7.5128   18.8396 O   0  0  0  0  0  0  0  0  0  0  0  0
    3.5598   -8.9624   16.7779 C   0  0  0  0  0  0  0  0  0  0  0  0
    4.3486   -8.4042   16.0599 C   0  0  0  0  0  0  0  0  0  0  0  0
   10.2399   -4.9660   18.4472 C   0  0  0  0  0  0  0  0  0  0  0  0
    3.7237   -7.6315   15.5046 C   0  0  0  0  0  0  0  0  0  0  0  0
    9.8088   -4.0635   16.3468 C   0  0  0  0  0  0  0  0  0  0  0  0
    9.2154   -6.2722   17.6826 C   0  0  0  0  0  0  0  0  0  0  0  0
   -0.6932  -10.6884   17.4356 C   0  0  0  0  0  0  0  0  0  0  0  0
    6.9336   -8.5828   16.4530 C   0  0  0  0  0  0  0  0  0  0  0  0
    9.5622   -5.5760   18.0223 N   0  0  0  0  0  0  0  0  0  0  0  0
    1.2143  -10.3666   17.9696 C   0  0  0  0  0  0  0  0  0  0  0  0
   10.9521   -3.3174   19.4314 C   0  0  0  0  0  0  0  0  0  0  0  0
    7.4143   -6.4554   16.3388 C   0  0  0  0  0  0  0  0  0  0  0  0
   11.1764   -3.9535   21.7280 C   0  0  0  0  0  0  0  0  0  0  0  0
   10.0916   -2.2889   23.2192 O   0  0  0  0  0  0  0  0  0  0  0  0
   -0.5023   -9.7808   15.2810 C   0  0  0  0  0  0  0  0  0  0  0  0
   11.2644   -3.3267   21.5669 C   0  0  0  0  0  0  0  0  0  0  0  0
   11.4904   -4.5138   21.2413 C   0  0  0  0  0  0  0  0  0  0  0  0
    0.0345   -9.3399   14.7766 C   0  0  0  0  0  0  0  0  0  0  0  0
   10.6907   -3.7750   16.8640 C   0  0  0  0  0  0  0  0  0  0  0  0
    2.1480   -9.3473   16.7329 C   0  0  0  0  0  0  0  0  0  0  0  0
    1.3625   -9.5377   16.5433 C   0  0  0  0  0  0  0  0  0  0  0  0
    5.5377   -8.0650   16.3371 C   0  0  0  0  0  0  0  0  0  0  0  0
    6.8904   -9.0348   16.9884 C   0  0  0  0  0  0  0  0  0  0  0  0
    7.0379   -7.0704   16.6695 C   0  0  0  0  0  0  0  0  0  0  0  0
   10.6703   -5.1863   19.8680 C   0  0  0  0  0  0  0  0  0  0  0  0
  1 20  4  0
  2  8  2  0
  2 22  1  0
  2 23  1  0
  2 25  1  0
  7 16  4  0
 10 11  4  0
 10 29  4  0
 11 13  4  0
 11 31  4  0
 14 28  4  0
 15 18  4  0
 17 32  4  0
 21 33  4  0
 22 26  4  0
 24 27  4  0
 29 30  4  0
M  END
$$$$

 Created by Python create_sdf_string function

 34 95  0  0  0  0  0  0  0  0999 V2000
    9.6960   -4.0853   21.5962 S   0  0  0  0  0  0  0  0  0  0  0  0
   10.9997   -2.9730   22.8475 C   0  0  0  0  0  0  0  0  0  0  0  0
    0.6778   -9.1781   15.9746 B   0  0  0  0  0  0  0  0  0  0  0  0
    9.3994   -5.6560   16.8527 N   0  0  0  0  0  0  0  0  0  0  0  0
   -0.0107  -10.1273   17.4260 C   0  0  0  0  0  0  0  0  0  0  0  0
   11.8374   -4.1478   23.2636 O   0  0  0  0  0  0  0  0  0  0  0  0
    9.6159   -7.7752   18.6704 N   0  0  0  0  0  0  0  0  0  0  0  0
    4.5272   -8.5228   15.1306 C   0  0  0  0  0  0  0  0  0  0  0  0
    9.2450   -4.9343   20.7888 O   0  0  0  0  0  0  0  0  0  0  0  0
    9.9258   -4.0945   16.5975 C   0  0  0  0  0  0  0  0  0  0  0  0
    0.6514  -11.8266   16.4516 N   0  0  0  0  0  0  0  0  0  0  0  0
    9.6851   -5.9202   18.6987 Cl  0  0  0  0  0  0  0  0  0  0  0  0
    1.2621  -12.0697   18.7166 C   0  0  0  0  0  0  0  0  0  0  0  0
   10.7127   -3.6604   19.3756 C   0  0  0  0  0  0  0  0  0  0  0  0
    7.1935   -6.7102   16.1849 C   0  0  0  0  0  0  0  0  0  0  0  0
   10.0959   -2.1218   23.5681 O   0  0  0  0  0  0  0  0  0  0  0  0
    9.9455   -3.5632   21.7564 C   0  0  0  0  0  0  0  0  0  0  0  0
   11.7775   -3.9106   21.0404 C   0  0  0  0  0  0  0  0  0  0  0  0
   -0.0051   -9.3984   14.6058 C   0  0  0  0  0  0  0  0  0  0  0  0
    2.6759   -9.0763   15.7871 C   0  0  0  0  0  0  0  0  0  0  0  0
    1.5437  -11.3949   15.7829 Cl  0  0  0  0  0  0  0  0  0  0  0  0
    5.0184   -7.9209   16.6750 P   0  0  0  0  0  0  0  0  0  0  0  0
    6.8588   -8.3260   17.8134 N   0  0  0  0  0  0  0  0  0  0  0  0
    6.6513   -8.0940   17.3955 S   0  0  0  0  0  0  0  0  0  0  0  0
   10.3938   -5.5862   20.4036 C   0  0  0  0  0  0  0  0  0  0  0  0
    6.9070   -8.0089   18.6298 He  0  0  0  0  0  0  0  0  0  0  0  0
   -0.2130   -9.6682   15.5097 He  0  0  0  0  0  0  0  0  0  0  0  0
    3.4099   -8.8172   16.6051 He  0  0  0  0  0  0  0  0  0  0  0  0
    3.7115   -6.3956   15.7337 He  0  0  0  0  0  0  0  0  0  0  0  0
   10.2852   -6.4089   16.7883 He  0  0  0  0  0  0  0  0  0  0  0  0
    6.3175   -8.4530   17.8598 He  0  0  0  0  0  0  0  0  0  0  0  0
   11.5033   -5.6450   23.6521 He  0  0  0  0  0  0  0  0  0  0  0  0
   -0.4269  -10.1398   15.3310 He  0  0  0  0  0  0  0  0  0  0  0  0
   11.0857   -3.8494   17.3219 He  0  0  0  0  0  0  0  0  0  0  0  0
  1  6  4  0
  1  8  1  0
  1 12  2  0
  1 14  2  0
  1 16  2  0
  1 20  2  0
  1 21  2  0
  1 22  2  0
  2  4  1  0
  2  6  2  0
  2  9  2  0
  2 11  2  0
  2 12  4  0
  2 16  1  0
  2 17  2  0
  3  4  4  0
  3  5  4  0
  3  7  4  0
  3  8  1  0
  3 10  1  0
  3 12  4  0
  3 13  1  0
  3 14  1  0
  3 17  1  0
  3 22  2  0
  3 24  1  0
  4  6  3  0
  4  7  2  0
  4  9  3  0
  4 13  3  0
  4 16  3  0
  4 23  1  0
  5  9  4  0
  5 12  3  0
  5 21  3  0
  5 22  4  0
  5 23  3  0
  5 25  3  0
  6 13  2  0
  6 16  4  0
  6 21  2  0
  6 22  1  0
  6 23  1  0
  6 24  3  0
  7 11  2  0
  8 16  2  0
  8 17  2  0
  8 22  4  0
  8 24  1  0
  9 10  1  0
  9 12  2  0
  9 14  4  0
  9 16  4  0
  9 19  2  0
  9 20  2  0
  9 24  2  0
  9 25  2  0
 10 11  4  0
 10 14  4  0
 10 23  2  0
 10 24  1  0
 11 18  1  0
 11 20  1  0
 12 15  4  0
 12 20  3  0
 12 21  3  0
 12 23  2  0
 13 14  2  0
 13 15  1  0
 13 19  4  0
 13 22  1  0
 13 23  3  0
 14 15  3  0
 14 23  1  0
 14 24  1  0
 15 17  1  0
 15 18  3  0
 16 21  3  0
 16 22  4  0
 17 24  1  0
 17 25  3  0
 18 19  2  0
 18 21  3  0
 18 24  4  0
 18 25  1  0
 19 21  4  0
 19 23  1  0
 19 24  1  0
 20 21  2  0
 20 25  4  0
 21 22  2  0
 21 23  4  0
 21 24  2  0
 22 25  3  0
 24 25  1  0
M  END
$$$$

 Created by Python create_sdf_string function

 34 10  0  0  0  0  0  0  0  0999 V2000
   10.4277   -3.7508   21.4504 C   0  0  0  0  0  0  0  0  0  0  0  0
   10.8453   -3.0265   23.2866 C   0  0  0  0  0  0  0  0  0  0  0  0
    7.3573   -7.9126   17.7434 C   0  0  0  0  0  0  0  0  0  0  0  0
   -0.0586  -10.1860   15.5490 C   0  0  0  0  0  0  0  0  0  0  0  0
    1.3213   -9.4641   16.1575 C   0  0  0  0  0  0  0  0  0  0  0  0
    9.1528   -5.6254   16.8961 C   0  0  0  0  0  0  0  0  0  0  0  0
    0.4691  -10.6601   17.2602 C   0  0  0  0  0  0  0  0  0  0  0  0
   11.5547   -3.8491   23.7880 O   0  0  0  0  0  0  0  0  0  0  0  0
    9.3762   -7.6087   18.2968 C   0  0  0  0  0  0  0  0  0  0  0  0
    3.2293   -8.9552   16.6643 C   0  0  0  0  0  0  0  0  0  0  0  0
    4.6072   -8.5060   16.1776 C   0  0  0  0  0  0  0  0  0  0  0  0
   10.3267   -4.6063   19.8574 C   0  0  0  0  0  0  0  0  0  0  0  0
    3.6966   -7.6111   15.9486 C   0  0  0  0  0  0  0  0  0  0  0  0
   10.1140   -4.1348   16.5576 C   0  0  0  0  0  0  0  0  0  0  0  0
    9.4458   -6.0135   17.5813 C   0  0  0  0  0  0  0  0  0  0  0  0
   -0.0848  -11.2813   17.0683 C   0  0  0  0  0  0  0  0  0  0  0  0
    6.1880   -8.3235   17.4067 C   0  0  0  0  0  0  0  0  0  0  0  0
    9.9202   -5.7299   18.4573 C   0  0  0  0  0  0  0  0  0  0  0  0
    0.9993  -11.2054   18.4262 C   0  0  0  0  0  0  0  0  0  0  0  0
   10.7119   -3.7583   18.5684 C   0  0  0  0  0  0  0  0  0  0  0  0
    7.4088   -6.7691   16.2892 C   0  0  0  0  0  0  0  0  0  0  0  0
   11.6687   -4.9559   23.1862 C   0  0  0  0  0  0  0  0  0  0  0  0
   10.2500   -2.2328   23.7049 O   0  0  0  0  0  0  0  0  0  0  0  0
   -0.3980  -10.3542   15.1901 C   0  0  0  0  0  0  0  0  0  0  0  0
   10.5652   -3.6710   21.7395 C   0  0  0  0  0  0  0  0  0  0  0  0
   11.5373   -4.6351   21.3004 C   0  0  0  0  0  0  0  0  0  0  0  0
    0.2889   -9.6783   14.7727 C   0  0  0  0  0  0  0  0  0  0  0  0
   10.7072   -3.7528   17.1953 C   0  0  0  0  0  0  0  0  0  0  0  0
    2.4942   -8.8318   16.0740 C   0  0  0  0  0  0  0  0  0  0  0  0
    0.7708  -10.2336   16.5323 C   0  0  0  0  0  0  0  0  0  0  0  0
    4.9707   -8.1899   16.5833 C   0  0  0  0  0  0  0  0  0  0  0  0
    7.0403   -8.0449   17.5056 C   0  0  0  0  0  0  0  0  0  0  0  0
    6.7310   -7.9692   17.0153 C   0  0  0  0  0  0  0  0  0  0  0  0
   10.5684   -5.2057   20.0884 C   0  0  0  0  0  0  0  0  0  0  0  0
  1 25  4  0
  2  8  2  0
  2 23  1  0
  4 24  4  0
  6 15  4  0
 11 31  4  0
 14 28  4  0
 15 18  1  0
 20 28  4  0
 24 27  4  0
M  END
$$$$

 Created by Python create_sdf_string function

 34 77  0  0  0  0  0  0  0  0999 V2000
   10.0084   -3.1507   22.9942 C   0  0  0  0  0  0  0  0  0  0  0  0
    7.9892   -8.0912   16.8302 Cl  0  0  0  0  0  0  0  0  0  0  0  0
    0.1835  -10.8241   17.0295 C   0  0  0  0  0  0  0  0  0  0  0  0
   11.7347   -3.5132   22.9844 O   0  0  0  0  0  0  0  0  0  0  0  0
   10.0168   -7.6794   18.7900 C   0  0  0  0  0  0  0  0  0  0  0  0
    4.3728   -8.2009   15.9716 C   0  0  0  0  0  0  0  0  0  0  0  0
    4.5709   -7.1340   14.8998 F   0  0  0  0  0  0  0  0  0  0  0  0
    9.3045   -3.9691   15.9765 C   0  0  0  0  0  0  0  0  0  0  0  0
    8.1656   -5.8928   16.3703 C   0  0  0  0  0  0  0  0  0  0  0  0
    6.4122   -8.0738   17.5829 Cl  0  0  0  0  0  0  0  0  0  0  0  0
    9.4433   -5.9511   19.4155 N   0  0  0  0  0  0  0  0  0  0  0  0
   10.5793   -3.6417   18.6406 O   0  0  0  0  0  0  0  0  0  0  0  0
    7.6992   -6.6750   16.5008 C   0  0  0  0  0  0  0  0  0  0  0  0
   11.4997   -4.9340   22.5172 N   0  0  0  0  0  0  0  0  0  0  0  0
   -1.2695  -10.7127   15.2413 C   0  0  0  0  0  0  0  0  0  0  0  0
   10.4047   -1.5173   23.0116 C   0  0  0  0  0  0  0  0  0  0  0  0
   11.0883   -4.0891   21.3381 C   0  0  0  0  0  0  0  0  0  0  0  0
    0.4423   -9.7243   14.7120 C   0  0  0  0  0  0  0  0  0  0  0  0
    2.6494   -8.6693   16.0789 F   0  0  0  0  0  0  0  0  0  0  0  0
    4.9224   -9.0669   16.9767 P   0  0  0  0  0  0  0  0  0  0  0  0
    6.7848  -10.1612   16.7992 C   0  0  0  0  0  0  0  0  0  0  0  0
    6.3794   -7.9388   19.1796 F   0  0  0  0  0  0  0  0  0  0  0  0
   10.3666   -5.7544   20.0171 C   0  0  0  0  0  0  0  0  0  0  0  0
   11.5281   -3.5516   22.3270 He  0  0  0  0  0  0  0  0  0  0  0  0
   -0.5343   -9.8767   17.3108 He  0  0  0  0  0  0  0  0  0  0  0  0
    2.2509   -9.4387   16.1577 He  0  0  0  0  0  0  0  0  0  0  0  0
   10.7254   -5.2428   15.8034 He  0  0  0  0  0  0  0  0  0  0  0  0
    3.2758   -9.4315   20.4217 He  0  0  0  0  0  0  0  0  0  0  0  0
    8.9971   -5.7462   19.8766 He  0  0  0  0  0  0  0  0  0  0  0  0
   -0.7207  -11.7357   15.0814 He  0  0  0  0  0  0  0  0  0  0  0  0
    0.8149  -11.5331   18.1910 He  0  0  0  0  0  0  0  0  0  0  0  0
    9.8513   -2.1699   23.8637 He  0  0  0  0  0  0  0  0  0  0  0  0
   11.1862   -4.6446   17.7407 He  0  0  0  0  0  0  0  0  0  0  0  0
    1.0983  -10.1805   15.5881 He  0  0  0  0  0  0  0  0  0  0  0  0
  1  2  4  0
  1  3  3  0
  1  4  2  0
  1  7  1  0
  1  8  4  0
  1 14  2  0
  1 15  1  0
  1 16  3  0
  1 21  4  0
  1 23  1  0
  2  9  3  0
  2 13  1  0
  2 15  2  0
  2 16  3  0
  3  5  3  0
  3  6  1  0
  3  7  1  0
  3 10  1  0
  3 14  4  0
  3 18  3  0
  3 21  4  0
  3 23  3  0
  4 14  1  0
  4 17  1  0
  4 20  2  0
  4 22  1  0
  5 14  3  0
  5 21  4  0
  5 22  1  0
  6  9  3  0
  6 14  3  0
  7 10  3  0
  7 12  4  0
  7 17  4  0
  7 21  3  0
  7 22  3  0
  8 10  2  0
  8 15  3  0
  8 20  1  0
  8 22  4  0
  9 10  4  0
  9 17  4  0
  9 18  2  0
  9 19  1  0
  9 20  1  0
  9 23  2  0
 10 11  2  0
 10 12  1  0
 10 13  4  0
 10 15  4  0
 10 19  4  0
 11 15  2  0
 11 20  2  0
 11 22  4  0
 12 21  3  0
 12 22  4  0
 13 16  2  0
 13 21  4  0
 13 22  3  0
 14 16  4  0
 14 17  2  0
 14 20  4  0
 15 18  4  0
 15 21  2  0
 15 22  1  0
 16 17  4  0
 16 18  1  0
 16 19  3  0
 17 21  1  0
 17 22  1  0
 18 22  3  0
 19 21  4  0
 19 23  2  0
 20 21  2  0
 20 22  3  0
 20 23  3  0
 22 23  1  0
M  END
$$$$

 Created by Python create_sdf_string function

 34 13  0  0  0  0  0  0  0  0999 V2000
   11.0364   -3.5089   22.2031 C   0  0  0  0  0  0  0  0  0  0  0  0
   10.1863   -3.0034   23.1669 C   0  0  0  0  0  0  0  0  0  0  0  0
    7.9142   -7.8369   16.9694 C   0  0  0  0  0  0  0  0  0  0  0  0
    0.1908  -10.6522   16.8993 C   0  0  0  0  0  0  0  0  0  0  0  0
    2.1317   -9.5050   16.6340 C   0  0  0  0  0  0  0  0  0  0  0  0
    9.7359   -4.6668   16.5792 C   0  0  0  0  0  0  0  0  0  0  0  0
    0.2922  -10.7172   17.1758 C   0  0  0  0  0  0  0  0  0  0  0  0
   11.3553   -3.6467   22.9139 C   0  0  0  0  0  0  0  0  0  0  0  0
    9.4633   -7.4682   18.4759 C   0  0  0  0  0  0  0  0  0  0  0  0
    3.5155  -10.2011   18.2269 C   0  0  0  0  0  0  0  0  0  0  0  0
    4.3560   -8.5783   16.4084 C   0  0  0  0  0  0  0  0  0  0  0  0
    9.9060   -5.8145   19.0183 C   0  0  0  0  0  0  0  0  0  0  0  0
    4.8701   -7.9440   16.0827 C   0  0  0  0  0  0  0  0  0  0  0  0
    9.6169   -4.1101   16.3067 C   0  0  0  0  0  0  0  0  0  0  0  0
    8.6305   -5.9847   16.5699 C   0  0  0  0  0  0  0  0  0  0  0  0
   -1.0734  -11.1524   15.5005 C   0  0  0  0  0  0  0  0  0  0  0  0
    6.6206   -7.9932   17.1721 C   0  0  0  0  0  0  0  0  0  0  0  0
    9.8168   -5.9488   18.8456 C   0  0  0  0  0  0  0  0  0  0  0  0
    1.2460  -10.7167   18.0763 C   0  0  0  0  0  0  0  0  0  0  0  0
   10.9000   -3.5671   18.7073 O   0  0  0  0  0  0  0  0  0  0  0  0
    7.8109   -6.9627   16.6654 C   0  0  0  0  0  0  0  0  0  0  0  0
   11.2557   -4.5356   22.0784 C   0  0  0  0  0  0  0  0  0  0  0  0
    9.9837   -2.0767   24.0145 C   0  0  0  0  0  0  0  0  0  0  0  0
   -0.8374  -10.7554   15.1372 C   0  0  0  0  0  0  0  0  0  0  0  0
   10.5101   -2.1448   23.3169 C   0  0  0  0  0  0  0  0  0  0  0  0
   11.0344   -4.1336   21.1956 C   0  0  0  0  0  0  0  0  0  0  0  0
    0.3542   -9.9093   15.0155 C   0  0  0  0  0  0  0  0  0  0  0  0
   10.4936   -4.3679   18.0837 C   0  0  0  0  0  0  0  0  0  0  0  0
    2.8217   -9.0132   16.3109 C   0  0  0  0  0  0  0  0  0  0  0  0
    1.0113   -9.7927   15.9521 C   0  0  0  0  0  0  0  0  0  0  0  0
    4.7268   -9.2655   17.4179 C   0  0  0  0  0  0  0  0  0  0  0  0
    6.2804   -9.1093   16.8210 C   0  0  0  0  0  0  0  0  0  0  0  0
    6.7014   -8.1590   18.0944 C   0  0  0  0  0  0  0  0  0  0  0  0
   10.5565   -5.3443   19.7285 C   0  0  0  0  0  0  0  0  0  0  0  0
  3 21  1  0
  4  7  4  0
  5 29  4  0
  6 14  1  0
 10 31  4  0
 11 13  4  0
 12 18  4  0
 15 21  4  0
 16 24  4  0
 20 28  1  0
 23 25  1  0
 24 27  4  0
 27 30  4  0
M  END
$$$$

 Created by Python create_sdf_string function

 34 80  0  0  0  0  0  0  0  0999 V2000
   10.0899   -2.8586   23.6568 C   0  0  0  0  0  0  0  0  0  0  0  0
    6.8627   -6.3904   17.4717 C   0  0  0  0  0  0  0  0  0  0  0  0
   -0.1869  -11.6910   17.6096 O   0  0  0  0  0  0  0  0  0  0  0  0
    1.7700   -8.6629   16.5444 O   0  0  0  0  0  0  0  0  0  0  0  0
    0.5164  -10.5647   17.1398 C   0  0  0  0  0  0  0  0  0  0  0  0
   11.3281   -4.0830   22.6755 C   0  0  0  0  0  0  0  0  0  0  0  0
    9.8663   -7.0880   18.6018 S   0  0  0  0  0  0  0  0  0  0  0  0
    4.4121   -8.6724   16.0251 C   0  0  0  0  0  0  0  0  0  0  0  0
   12.2482   -4.9742   18.4078 C   0  0  0  0  0  0  0  0  0  0  0  0
    4.7819   -6.9672   17.2059 N   0  0  0  0  0  0  0  0  0  0  0  0
    9.7855   -4.2221   15.8569 C   0  0  0  0  0  0  0  0  0  0  0  0
    7.2500   -5.8173   16.5196 N   0  0  0  0  0  0  0  0  0  0  0  0
   -2.8627  -11.6036   15.9748 S   0  0  0  0  0  0  0  0  0  0  0  0
    5.5944   -7.2000   16.5096 C   0  0  0  0  0  0  0  0  0  0  0  0
    0.9711  -11.1095   18.0108 S   0  0  0  0  0  0  0  0  0  0  0  0
   10.3781   -3.7119   18.5401 S   0  0  0  0  0  0  0  0  0  0  0  0
    7.4747   -7.1478   17.5482 C   0  0  0  0  0  0  0  0  0  0  0  0
   12.8074   -6.6499   22.8746 F   0  0  0  0  0  0  0  0  0  0  0  0
   10.0330   -2.1959   24.0277 C   0  0  0  0  0  0  0  0  0  0  0  0
   11.4693   -4.0496   20.4848 C   0  0  0  0  0  0  0  0  0  0  0  0
    9.0102   -4.8426   17.2487 C   0  0  0  0  0  0  0  0  0  0  0  0
    2.8847   -8.8091   16.0359 C   0  0  0  0  0  0  0  0  0  0  0  0
    6.5741   -8.0975   16.1556 F   0  0  0  0  0  0  0  0  0  0  0  0
   10.4172   -5.7289   19.3676 C   0  0  0  0  0  0  0  0  0  0  0  0
   10.8022   -4.3817   22.4809 He  0  0  0  0  0  0  0  0  0  0  0  0
   10.9986   -4.7320   16.6058 He  0  0  0  0  0  0  0  0  0  0  0  0
    4.1257  -10.3120   19.5940 He  0  0  0  0  0  0  0  0  0  0  0  0
   10.1254   -6.9030   17.5761 He  0  0  0  0  0  0  0  0  0  0  0  0
   -0.7588  -10.7277   15.4708 He  0  0  0  0  0  0  0  0  0  0  0  0
   11.7559    0.1238   24.0780 He  0  0  0  0  0  0  0  0  0  0  0  0
    0.0152  -10.0155   15.0808 He  0  0  0  0  0  0  0  0  0  0  0  0
    2.2522   -9.4856   16.3941 He  0  0  0  0  0  0  0  0  0  0  0  0
    6.4029   -7.8794   18.2864 He  0  0  0  0  0  0  0  0  0  0  0  0
    5.6343  -10.5183   17.5288 He  0  0  0  0  0  0  0  0  0  0  0  0
  1  5  4  0
  1  9  1  0
  1 12  2  0
  1 13  4  0
  1 15  4  0
  1 18  3  0
  1 23  4  0
  1 24  1  0
  2  6  3  0
  2  9  2  0
  2 15  1  0
  2 19  2  0
  2 20  1  0
  2 22  3  0
  2 23  4  0
  3  5  4  0
  3  6  1  0
  3 12  1  0
  3 14  3  0
  3 16  3  0
  3 20  3  0
  4  5  1  0
  4  7  1  0
  4 13  3  0
  4 16  4  0
  4 17  1  0
  4 18  1  0
  4 20  2  0
  4 22  4  0
  4 24  4  0
  5  7  4  0
  5 18  1  0
  6 12  4  0
  6 13  2  0
  6 15  3  0
  6 19  1  0
  7 15  2  0
  7 16  3  0
  7 19  1  0
  7 20  1  0
  7 22  4  0
  7 23  2  0
  8 19  1  0
  8 23  4  0
  8 24  2  0
  9 11  2  0
  9 16  1  0
  9 19  3  0
 10 11  4  0
 10 20  4  0
 10 24  3  0
 11 15  3  0
 11 20  3  0
 12 16  2  0
 12 17  4  0
 12 23  4  0
 12 24  2  0
 13 16  2  0
 13 22  4  0
 13 23  4  0
 13 24  2  0
 14 20  4  0
 14 22  1  0
 15 16  2  0
 15 19  2  0
 15 24  1  0
 16 18  1  0
 16 23  2  0
 17 22  2  0
 17 23  1  0
 18 21  2  0
 18 23  3  0
 18 24  2  0
 19 22  2  0
 19 23  1  0
 20 21  3  0
 20 22  4  0
 21 22  3  0
 21 23  4  0
 21 24  2  0
M  END
$$$$

 Created by Python create_sdf_string function

 34 18  0  0  0  0  0  0  0  0999 V2000
   11.1369   -3.8505   22.3011 C   0  0  0  0  0  0  0  0  0  0  0  0
   10.4571   -2.9125   23.7071 C   0  0  0  0  0  0  0  0  0  0  0  0
    7.5312   -6.8415   17.0126 C   0  0  0  0  0  0  0  0  0  0  0  0
   -0.3508  -11.3447   17.3388 C   0  0  0  0  0  0  0  0  0  0  0  0
    1.8972   -9.2334   16.2598 C   0  0  0  0  0  0  0  0  0  0  0  0
   10.5506   -4.0845   17.0135 C   0  0  0  0  0  0  0  0  0  0  0  0
    0.5392  -10.7460   17.4198 C   0  0  0  0  0  0  0  0  0  0  0  0
   11.1864   -3.6144   22.5243 C   0  0  0  0  0  0  0  0  0  0  0  0
    9.9577   -6.9590   18.7546 S   0  0  0  0  0  0  0  0  0  0  0  0
    3.8765  -10.3195   18.1006 C   0  0  0  0  0  0  0  0  0  0  0  0
    4.3919   -8.6814   16.4566 C   0  0  0  0  0  0  0  0  0  0  0  0
   11.2038   -4.6805   19.4335 C   0  0  0  0  0  0  0  0  0  0  0  0
    4.5726   -7.8316   16.6097 C   0  0  0  0  0  0  0  0  0  0  0  0
    9.7753   -4.1302   16.2855 C   0  0  0  0  0  0  0  0  0  0  0  0
    7.9999   -5.7561   16.2175 N   0  0  0  0  0  0  0  0  0  0  0  0
   -1.9319  -11.4211   15.6864 C   0  0  0  0  0  0  0  0  0  0  0  0
    5.5177   -7.7018   16.6340 C   0  0  0  0  0  0  0  0  0  0  0  0
    9.4590   -6.3685   18.0198 C   0  0  0  0  0  0  0  0  0  0  0  0
    1.1117  -10.7717   17.8663 C   0  0  0  0  0  0  0  0  0  0  0  0
   10.9108   -3.9795   18.5890 C   0  0  0  0  0  0  0  0  0  0  0  0
    7.6465   -7.1768   17.4211 C   0  0  0  0  0  0  0  0  0  0  0  0
   11.7118   -4.9372   22.7463 O   0  0  0  0  0  0  0  0  0  0  0  0
   10.5752   -2.3617   23.6663 C   0  0  0  0  0  0  0  0  0  0  0  0
   -0.6761  -10.7625   15.7003 C   0  0  0  0  0  0  0  0  0  0  0  0
   11.1403   -1.5893   23.6117 C   0  0  0  0  0  0  0  0  0  0  0  0
   11.2852   -4.2331   20.7768 C   0  0  0  0  0  0  0  0  0  0  0  0
    0.0721  -10.1509   15.4908 C   0  0  0  0  0  0  0  0  0  0  0  0
    9.5204   -5.0762   17.0687 C   0  0  0  0  0  0  0  0  0  0  0  0
    3.1208   -8.9440   16.5295 C   0  0  0  0  0  0  0  0  0  0  0  0
    2.0401   -9.6702   16.8123 C   0  0  0  0  0  0  0  0  0  0  0  0
    6.5139   -8.0872   17.8661 C   0  0  0  0  0  0  0  0  0  0  0  0
    5.1770   -9.8101   17.6305 C   0  0  0  0  0  0  0  0  0  0  0  0
    6.6991   -8.0086   16.4741 C   0  0  0  0  0  0  0  0  0  0  0  0
   10.5858   -5.6929   19.5238 C   0  0  0  0  0  0  0  0  0  0  0  0
  1  8  1  0
  2 23  1  0
  4  7  4  0
  5 29  4  0
  5 30  1  0
  6 14  4  0
  6 20  4  0
  7 19  4  0
  9 18  4  0
  9 34  4  0
 10 32  4  0
 12 20  4  0
 13 17  4  0
 14 28  4  0
 16 24  1  0
 21 31  1  0
 23 25  4  0
 24 27  4  0
M  END
$$$$

 Created by Python create_sdf_string function

 34 95  0  0  0  0  0  0  0  0999 V2000
   11.8051   -2.8433   22.2938 F   0  0  0  0  0  0  0  0  0  0  0  0
   10.5973   -2.9589   23.7430 C   0  0  0  0  0  0  0  0  0  0  0  0
    0.5579  -10.9069   16.9410 F   0  0  0  0  0  0  0  0  0  0  0  0
    2.0974   -9.2848   15.8950 O   0  0  0  0  0  0  0  0  0  0  0  0
    9.4324   -5.1051   17.4026 N   0  0  0  0  0  0  0  0  0  0  0  0
   -0.0939  -11.0271   17.9518 C   0  0  0  0  0  0  0  0  0  0  0  0
   10.9200   -3.4585   22.4829 C   0  0  0  0  0  0  0  0  0  0  0  0
   10.0149   -6.8397   18.9718 S   0  0  0  0  0  0  0  0  0  0  0  0
    3.1986  -11.5302   17.8154 P   0  0  0  0  0  0  0  0  0  0  0  0
    4.2693   -6.6603   17.3200 F   0  0  0  0  0  0  0  0  0  0  0  0
    9.7995   -4.1583   16.0931 C   0  0  0  0  0  0  0  0  0  0  0  0
    7.4549   -4.5067   15.6458 C   0  0  0  0  0  0  0  0  0  0  0  0
    1.8541   -8.6861   18.1092 C   0  0  0  0  0  0  0  0  0  0  0  0
   10.5675   -4.1916   18.5800 C   0  0  0  0  0  0  0  0  0  0  0  0
    7.3606   -7.1427   17.6065 C   0  0  0  0  0  0  0  0  0  0  0  0
   10.5522   -2.3695   24.0048 C   0  0  0  0  0  0  0  0  0  0  0  0
   10.7883   -1.6994   22.4744 C   0  0  0  0  0  0  0  0  0  0  0  0
   11.2181   -3.6750   20.7174 C   0  0  0  0  0  0  0  0  0  0  0  0
    0.1018   -9.3578   15.7488 C   0  0  0  0  0  0  0  0  0  0  0  0
    9.4042   -5.6677   17.8314 N   0  0  0  0  0  0  0  0  0  0  0  0
    2.6725   -8.1277   16.2111 C   0  0  0  0  0  0  0  0  0  0  0  0
    6.2293   -7.9658   18.1773 N   0  0  0  0  0  0  0  0  0  0  0  0
    6.3560   -8.5451   16.5181 F   0  0  0  0  0  0  0  0  0  0  0  0
   10.8332   -5.4431   19.5047 C   0  0  0  0  0  0  0  0  0  0  0  0
    8.8181   -8.3312   17.2913 He  0  0  0  0  0  0  0  0  0  0  0  0
    4.6134   -8.7669   16.3570 He  0  0  0  0  0  0  0  0  0  0  0  0
   10.8588   -4.0334   20.2295 He  0  0  0  0  0  0  0  0  0  0  0  0
   -0.6868  -11.8203   16.7826 He  0  0  0  0  0  0  0  0  0  0  0  0
    6.9873   -7.0549   15.7584 He  0  0  0  0  0  0  0  0  0  0  0  0
   11.3362   -7.5375   18.0271 He  0  0  0  0  0  0  0  0  0  0  0  0
   10.9410   -5.2941   21.4685 He  0  0  0  0  0  0  0  0  0  0  0  0
   -1.1332  -10.9163   15.7549 He  0  0  0  0  0  0  0  0  0  0  0  0
    3.5857   -9.5582   17.2460 He  0  0  0  0  0  0  0  0  0  0  0  0
    4.3455   -8.3867   18.4904 He  0  0  0  0  0  0  0  0  0  0  0  0
  1  3  1  0
  1  5  1  0
  1  8  2  0
  1 16  4  0
  1 19  3  0
  1 20  2  0
  1 21  4  0
  1 23  4  0
  1 24  4  0
  2  3  4  0
  2  5  3  0
  2  6  1  0
  2  9  3  0
  2 11  3  0
  2 12  4  0
  2 16  1  0
  3 10  1  0
  3 11  4  0
  3 15  3  0
  3 16  2  0
  3 18  2  0
  3 19  3  0
  3 20  2  0
  3 22  1  0
  4  5  3  0
  4  6  3  0
  4 10  3  0
  4 11  1  0
  4 13  2  0
  4 14  1  0
  4 15  2  0
  5  6  3  0
  5  7  1  0
  5  8  1  0
  5 10  2  0
  5 12  1  0
  5 15  1  0
  5 17  4  0
  5 20  4  0
  5 21  2  0
  5 24  3  0
  6 10  1  0
  6 14  2  0
  6 15  4  0
  6 20  3  0
  7  9  1  0
  7 12  4  0
  7 13  1  0
  8 10  4  0
  8 12  3  0
  8 13  3  0
  8 16  2  0
  8 21  1  0
  8 24  3  0
  9 10  2  0
  9 12  4  0
  9 13  4  0
  9 18  4  0
  9 20  1  0
  9 22  4  0
  9 24  3  0
 10 13  4  0
 10 15  3  0
 10 21  2  0
 11 13  3  0
 11 20  2  0
 11 22  2  0
 12 13  2  0
 12 17  2  0
 12 18  1  0
 12 20  2  0
 13 14  4  0
 13 15  3  0
 13 16  2  0
 13 22  4  0
 13 23  2  0
 14 17  2  0
 15 20  2  0
 15 22  2  0
 15 23  4  0
 16 17  4  0
 16 20  1  0
 16 22  1  0
 17 18  1  0
 17 19  3  0
 17 22  1  0
 17 23  1  0
 18 22  1  0
 18 23  4  0
 19 20  2  0
 19 23  3  0
 20 22  4  0
 21 23  2  0
 22 24  3  0
 23 24  4  0
M  END
$$$$

 Created by Python create_sdf_string function

 34 11  0  0  0  0  0  0  0  0999 V2000
   11.0664   -2.7483   22.5142 C   0  0  0  0  0  0  0  0  0  0  0  0
   10.5874   -2.7271   24.2856 C   0  0  0  0  0  0  0  0  0  0  0  0
    8.4715   -7.9653   17.2550 C   0  0  0  0  0  0  0  0  0  0  0  0
    0.1883  -10.7769   16.9285 C   0  0  0  0  0  0  0  0  0  0  0  0
    1.6755   -9.3106   16.3060 C   0  0  0  0  0  0  0  0  0  0  0  0
    9.3783   -5.3149   17.3740 N   0  0  0  0  0  0  0  0  0  0  0  0
    0.3958  -11.3137   17.7839 C   0  0  0  0  0  0  0  0  0  0  0  0
   11.0601   -3.9255   22.5711 C   0  0  0  0  0  0  0  0  0  0  0  0
    9.9360   -6.7325   18.5924 C   0  0  0  0  0  0  0  0  0  0  0  0
    2.5295  -10.6405   18.1744 C   0  0  0  0  0  0  0  0  0  0  0  0
    4.8446   -8.6454   16.7350 C   0  0  0  0  0  0  0  0  0  0  0  0
   10.8986   -4.1703   20.0118 C   0  0  0  0  0  0  0  0  0  0  0  0
    4.5178   -7.5855   16.4894 C   0  0  0  0  0  0  0  0  0  0  0  0
    9.5488   -4.2108   16.3040 C   0  0  0  0  0  0  0  0  0  0  0  0
    8.3774   -5.4287   16.0103 C   0  0  0  0  0  0  0  0  0  0  0  0
   -0.6875  -11.5514   17.0683 C   0  0  0  0  0  0  0  0  0  0  0  0
    7.1303   -7.1175   15.9651 C   0  0  0  0  0  0  0  0  0  0  0  0
    9.9459   -7.4273   18.4806 C   0  0  0  0  0  0  0  0  0  0  0  0
    2.0101  -10.0988   17.4105 C   0  0  0  0  0  0  0  0  0  0  0  0
   10.3850   -4.0988   18.1479 C   0  0  0  0  0  0  0  0  0  0  0  0
    7.6004   -7.3921   17.4042 C   0  0  0  0  0  0  0  0  0  0  0  0
   11.0688   -4.5959   21.6940 C   0  0  0  0  0  0  0  0  0  0  0  0
   10.6500   -2.4192   24.0444 C   0  0  0  0  0  0  0  0  0  0  0  0
   -0.8999  -10.9236   16.0275 C   0  0  0  0  0  0  0  0  0  0  0  0
   11.0867   -2.2850   22.4983 C   0  0  0  0  0  0  0  0  0  0  0  0
   11.0773   -3.7721   20.4998 C   0  0  0  0  0  0  0  0  0  0  0  0
    0.3372   -9.8905   15.9747 C   0  0  0  0  0  0  0  0  0  0  0  0
    9.4067   -5.6025   17.4759 N   0  0  0  0  0  0  0  0  0  0  0  0
    2.5947   -8.5412   16.2249 C   0  0  0  0  0  0  0  0  0  0  0  0
    3.4688   -9.5563   17.3085 C   0  0  0  0  0  0  0  0  0  0  0  0
    6.3250   -8.1131   17.9598 C   0  0  0  0  0  0  0  0  0  0  0  0
    4.9565   -8.8020   17.6167 C   0  0  0  0  0  0  0  0  0  0  0  0
    6.2935   -8.4206   16.4656 C   0  0  0  0  0  0  0  0  0  0  0  0
   10.7059   -5.3794   19.7584 C   0  0  0  0  0  0  0  0  0  0  0  0
  2 23  1  0
  3 21  1  0
  5 29  4  0
  6 28  4  0
  7 16  4  0
  8 22  4  0
  9 18  4  0
 10 19  4  0
 12 26  4  0
 12 34  4  0
 16 24  4  0
M  END
$$$$

 Created by Python create_sdf_string function

 34 54  0  0  0  0  0  0  0  0999 V2000
   10.6644   -2.8781   24.1983 C   0  0  0  0  0  0  0  0  0  0  0  0
    0.4067  -11.4011   17.7099 C   0  0  0  0  0  0  0  0  0  0  0  0
    9.5233   -4.4671   16.2904 C   0  0  0  0  0  0  0  0  0  0  0  0
    8.3163   -4.8080   16.8353 C   0  0  0  0  0  0  0  0  0  0  0  0
   -1.3182  -12.7064   14.8923 F   0  0  0  0  0  0  0  0  0  0  0  0
    7.5635   -6.9735   15.4793 N   0  0  0  0  0  0  0  0  0  0  0  0
    3.2004   -9.3701   17.7415 N   0  0  0  0  0  0  0  0  0  0  0  0
   10.2381   -4.2525   18.4879 C   0  0  0  0  0  0  0  0  0  0  0  0
    7.7095   -7.6403   17.1077 C   0  0  0  0  0  0  0  0  0  0  0  0
    9.9585   -2.8493   24.3774 C   0  0  0  0  0  0  0  0  0  0  0  0
   -0.9447  -10.8494   16.5493 C   0  0  0  0  0  0  0  0  0  0  0  0
   12.2207   -3.3645   22.7727 C   0  0  0  0  0  0  0  0  0  0  0  0
   10.7372   -3.7004   19.7515 C   0  0  0  0  0  0  0  0  0  0  0  0
    0.6141   -9.7116   15.8265 C   0  0  0  0  0  0  0  0  0  0  0  0
   10.8650   -5.9456   17.2437 C   0  0  0  0  0  0  0  0  0  0  0  0
    2.7829   -8.7034   16.2547 C   0  0  0  0  0  0  0  0  0  0  0  0
    4.3945  -10.1950   15.5724 Cl  0  0  0  0  0  0  0  0  0  0  0  0
    7.1327   -8.8102   17.2637 O   0  0  0  0  0  0  0  0  0  0  0  0
   10.1738   -5.4905   19.2177 C   0  0  0  0  0  0  0  0  0  0  0  0
   12.4742   -2.2804   22.0471 He  0  0  0  0  0  0  0  0  0  0  0  0
    8.4716   -8.2451   17.4470 He  0  0  0  0  0  0  0  0  0  0  0  0
   -1.1660  -11.7291   18.5497 He  0  0  0  0  0  0  0  0  0  0  0  0
    2.0575   -9.4409   16.8818 He  0  0  0  0  0  0  0  0  0  0  0  0
    7.7288   -5.9748   18.0068 He  0  0  0  0  0  0  0  0  0  0  0  0
   10.8180   -3.8345   22.1616 He  0  0  0  0  0  0  0  0  0  0  0  0
   10.3860   -6.4668   18.8422 He  0  0  0  0  0  0  0  0  0  0  0  0
    3.6927  -11.6676   17.3804 He  0  0  0  0  0  0  0  0  0  0  0  0
    4.6692   -8.3860   16.8298 He  0  0  0  0  0  0  0  0  0  0  0  0
   12.2356   -4.0259   20.8594 He  0  0  0  0  0  0  0  0  0  0  0  0
    5.2784   -7.7449   16.3399 He  0  0  0  0  0  0  0  0  0  0  0  0
   10.4868   -8.2982   17.9654 He  0  0  0  0  0  0  0  0  0  0  0  0
    9.9295   -3.2816   21.5729 He  0  0  0  0  0  0  0  0  0  0  0  0
    4.8752   -7.7893   16.5467 He  0  0  0  0  0  0  0  0  0  0  0  0
    4.5169   -8.5474   16.9639 He  0  0  0  0  0  0  0  0  0  0  0  0
  1  4  2  0
  1  7  3  0
  1 10  1  0
  1 11  2  0
  1 12  3  0
  1 15  4  0
  1 17  1  0
  1 18  2  0
  2  5  2  0
  2  8  1  0
  2 13  2  0
  2 15  4  0
  2 17  4  0
  3  7  2  0
  3 14  2  0
  3 16  2  0
  4  7  1  0
  4  9  4  0
  4 13  1  0
  4 15  4  0
  5  6  2  0
  5  7  4  0
  5 10  1  0
  5 11  2  0
  5 13  4  0
  5 14  4  0
  5 19  1  0
  6  8  4  0
  6  9  1  0
  6 13  2  0
  6 15  2  0
  6 16  2  0
  6 18  1  0
  7  8  3  0
  7  9  4  0
  7 18  1  0
  7 19  2  0
  8  9  3  0
  8 12  2  0
  8 18  1  0
  9 10  3  0
  9 17  1  0
  9 18  1  0
 10 17  3  0
 11 13  2  0
 11 19  1  0
 12 13  4  0
 12 18  2  0
 14 15  1  0
 14 17  3  0
 14 18  4  0
 15 16  3  0
 15 19  1  0
 18 19  4  0
M  END
$$$$

 Created by Python create_sdf_string function

 34 17  0  0  0  0  0  0  0  0999 V2000
   11.7357   -2.8916   22.6033 C   0  0  0  0  0  0  0  0  0  0  0  0
   10.8394   -2.7593   24.2744 C   0  0  0  0  0  0  0  0  0  0  0  0
    8.5262   -8.0359   17.4084 C   0  0  0  0  0  0  0  0  0  0  0  0
   -0.4513  -11.5903   17.6235 C   0  0  0  0  0  0  0  0  0  0  0  0
    1.2389  -10.1369   16.7564 C   0  0  0  0  0  0  0  0  0  0  0  0
    8.4297   -6.2549   17.4429 C   0  0  0  0  0  0  0  0  0  0  0  0
    0.8357  -10.8490   17.6181 C   0  0  0  0  0  0  0  0  0  0  0  0
   10.8824   -3.6377   22.1748 C   0  0  0  0  0  0  0  0  0  0  0  0
   10.3219   -6.1998   18.9299 C   0  0  0  0  0  0  0  0  0  0  0  0
    2.9193  -10.5974   18.1864 C   0  0  0  0  0  0  0  0  0  0  0  0
    4.9889   -8.5673   16.8191 C   0  0  0  0  0  0  0  0  0  0  0  0
   11.4223   -4.2109   20.7272 C   0  0  0  0  0  0  0  0  0  0  0  0
    5.6872   -7.7740   16.2644 C   0  0  0  0  0  0  0  0  0  0  0  0
    9.7485   -4.2629   16.5281 C   0  0  0  0  0  0  0  0  0  0  0  0
    9.0666   -5.1901   16.6696 C   0  0  0  0  0  0  0  0  0  0  0  0
   -1.0644  -11.4682   15.7595 C   0  0  0  0  0  0  0  0  0  0  0  0
    7.4644   -6.9811   15.9073 C   0  0  0  0  0  0  0  0  0  0  0  0
    9.6613   -7.8455   18.1730 C   0  0  0  0  0  0  0  0  0  0  0  0
    3.2697  -10.0120   17.7105 N   0  0  0  0  0  0  0  0  0  0  0  0
   10.5785   -3.9502   18.2453 C   0  0  0  0  0  0  0  0  0  0  0  0
    7.7332   -7.5930   16.9852 C   0  0  0  0  0  0  0  0  0  0  0  0
   10.5450   -3.5538   21.9639 C   0  0  0  0  0  0  0  0  0  0  0  0
   10.0815   -2.8559   24.2111 C   0  0  0  0  0  0  0  0  0  0  0  0
   -0.7193  -11.3552   16.7277 C   0  0  0  0  0  0  0  0  0  0  0  0
   11.5710   -3.4752   22.8078 C   0  0  0  0  0  0  0  0  0  0  0  0
   10.8675   -3.8662   19.6481 C   0  0  0  0  0  0  0  0  0  0  0  0
    0.3321  -10.2996   15.8754 C   0  0  0  0  0  0  0  0  0  0  0  0
    9.9179   -5.2848   17.6708 C   0  0  0  0  0  0  0  0  0  0  0  0
    2.4659   -9.1756   16.3128 C   0  0  0  0  0  0  0  0  0  0  0  0
    3.9965   -9.1921   16.2687 C   0  0  0  0  0  0  0  0  0  0  0  0
    6.8872   -8.6176   17.1545 C   0  0  0  0  0  0  0  0  0  0  0  0
    5.0822   -8.0318   16.5207 C   0  0  0  0  0  0  0  0  0  0  0  0
    4.3237   -8.8586   16.9017 C   0  0  0  0  0  0  0  0  0  0  0  0
   10.3697   -5.6844   19.0043 C   0  0  0  0  0  0  0  0  0  0  0  0
  2 23  4  0
  3 18  1  0
  3 21  1  0
  4  7  4  0
  4 24  4  0
  5  7  4  0
  5 27  4  0
  5 29  4  0
  8 22  4  0
  9 34  4  0
 10 19  4  0
 12 26  4  0
 16 24  4  0
 16 27  4  0
 17 21  1  0
 20 26  4  0
 21 31  1  0
M  END
$$$$

 Created by Python create_sdf_string function

 34 76  0  0  0  0  0  0  0  0999 V2000
   10.3738   -2.2831   23.0518 F   0  0  0  0  0  0  0  0  0  0  0  0
    7.8173   -8.2809   18.0343 O   0  0  0  0  0  0  0  0  0  0  0  0
    0.8672  -10.3553   17.3447 O   0  0  0  0  0  0  0  0  0  0  0  0
    1.4239  -10.6566   17.6741 C   0  0  0  0  0  0  0  0  0  0  0  0
   10.8415   -3.8580   22.4823 C   0  0  0  0  0  0  0  0  0  0  0  0
   10.4146   -5.8544   18.4555 C   0  0  0  0  0  0  0  0  0  0  0  0
    2.5900  -11.0459   16.6935 O   0  0  0  0  0  0  0  0  0  0  0  0
    4.4804   -8.2950   16.7493 P   0  0  0  0  0  0  0  0  0  0  0  0
   10.1655   -4.1130   16.9264 C   0  0  0  0  0  0  0  0  0  0  0  0
    8.5627   -4.4236   15.6497 P   0  0  0  0  0  0  0  0  0  0  0  0
   -0.8679  -12.3082   17.1310 C   0  0  0  0  0  0  0  0  0  0  0  0
    6.7490   -6.9677   15.2844 O   0  0  0  0  0  0  0  0  0  0  0  0
   10.0810   -2.3692   23.7694 C   0  0  0  0  0  0  0  0  0  0  0  0
   -0.0596  -11.1564   16.8698 C   0  0  0  0  0  0  0  0  0  0  0  0
   13.1920   -3.8894   23.2668 P   0  0  0  0  0  0  0  0  0  0  0  0
   10.9910   -3.8324   19.8565 C   0  0  0  0  0  0  0  0  0  0  0  0
    0.4814  -10.7906   16.0073 C   0  0  0  0  0  0  0  0  0  0  0  0
    2.2020   -9.3626   16.1289 C   0  0  0  0  0  0  0  0  0  0  0  0
    4.1231   -9.2508   14.9329 Cl  0  0  0  0  0  0  0  0  0  0  0  0
    4.8858   -9.0570   15.2549 P   0  0  0  0  0  0  0  0  0  0  0  0
   10.7973   -6.4509   19.3141 O   0  0  0  0  0  0  0  0  0  0  0  0
   10.9816   -3.3781   24.4018 He  0  0  0  0  0  0  0  0  0  0  0  0
   -1.5123  -11.9171   18.2108 He  0  0  0  0  0  0  0  0  0  0  0  0
    7.7476   -5.7990   17.5301 He  0  0  0  0  0  0  0  0  0  0  0  0
   11.1568   -3.5949   21.6432 He  0  0  0  0  0  0  0  0  0  0  0  0
    6.9444   -6.8533   16.5251 He  0  0  0  0  0  0  0  0  0  0  0  0
   10.3732   -7.9428   19.4537 He  0  0  0  0  0  0  0  0  0  0  0  0
    3.3330  -10.9613   17.8404 He  0  0  0  0  0  0  0  0  0  0  0  0
   10.3687   -3.8668   17.7628 He  0  0  0  0  0  0  0  0  0  0  0  0
    7.4314   -7.2788   16.7008 He  0  0  0  0  0  0  0  0  0  0  0  0
   11.1340   -3.7393   23.0013 He  0  0  0  0  0  0  0  0  0  0  0  0
   11.0290   -5.9018   18.2417 He  0  0  0  0  0  0  0  0  0  0  0  0
    7.4451   -9.1228   16.7323 He  0  0  0  0  0  0  0  0  0  0  0  0
    4.9173   -9.3698   16.9787 He  0  0  0  0  0  0  0  0  0  0  0  0
  1  6  1  0
  1  7  3  0
  1  8  2  0
  1 11  4  0
  1 14  1  0
  1 18  2  0
  2  3  4  0
  2 11  4  0
  2 13  2  0
  2 14  1  0
  2 15  1  0
  2 16  3  0
  2 17  1  0
  2 20  4  0
  2 21  2  0
  3  6  2  0
  3  7  1  0
  3  8  2  0
  3  9  1  0
  3 12  4  0
  3 13  4  0
  3 14  1  0
  3 17  3  0
  3 18  2  0
  3 19  4  0
  3 21  3  0
  4  7  4  0
  4 11  3  0
  4 12  4  0
  4 20  3  0
  5  6  1  0
  5  8  2  0
  5 20  1  0
  5 21  4  0
  6 14  4  0
  6 20  2  0
  6 21  4  0
  7  8  4  0
  7  9  4  0
  7 10  3  0
  7 11  2  0
  7 13  4  0
  7 15  1  0
  7 19  2  0
  8 17  4  0
  8 18  4  0
  8 19  4  0
 10 13  3  0
 10 14  1  0
 10 16  1  0
 10 18  1  0
 10 19  3  0
 10 20  3  0
 11 12  4  0
 11 14  3  0
 11 16  3  0
 11 17  2  0
 11 18  4  0
 11 19  3  0
 11 21  4  0
 12 13  1  0
 12 14  1  0
 12 18  1  0
 12 19  1  0
 12 21  2  0
 13 15  3  0
 13 20  2  0
 14 16  1  0
 15 16  2  0
 16 18  1  0
 16 19  3  0
 17 18  3  0
 17 19  4  0
 17 20  2  0
 18 19  2  0
 19 21  3  0
M  END
$$$$

 Created by Python create_sdf_string function

 34 12  0  0  0  0  0  0  0  0999 V2000
   10.4297   -2.5788   23.1198 C   0  0  0  0  0  0  0  0  0  0  0  0
   11.0518   -3.1621   24.5391 C   0  0  0  0  0  0  0  0  0  0  0  0
    8.2071   -7.9292   17.6095 C   0  0  0  0  0  0  0  0  0  0  0  0
   -0.9029  -11.8697   17.7521 C   0  0  0  0  0  0  0  0  0  0  0  0
    0.8289  -10.6137   17.3267 C   0  0  0  0  0  0  0  0  0  0  0  0
    8.4747   -6.2557   16.9786 C   0  0  0  0  0  0  0  0  0  0  0  0
    1.3675  -10.7607   17.9568 C   0  0  0  0  0  0  0  0  0  0  0  0
   11.0440   -3.9697   22.0372 C   0  0  0  0  0  0  0  0  0  0  0  0
   10.2238   -5.7450   18.6620 C   0  0  0  0  0  0  0  0  0  0  0  0
    2.1120  -10.0790   17.3523 C   0  0  0  0  0  0  0  0  0  0  0  0
    4.3749   -8.8919   16.6498 C   0  0  0  0  0  0  0  0  0  0  0  0
   11.1486   -3.9410   21.3043 C   0  0  0  0  0  0  0  0  0  0  0  0
    7.1556   -7.0342   16.5441 C   0  0  0  0  0  0  0  0  0  0  0  0
   10.0674   -4.1318   16.8409 C   0  0  0  0  0  0  0  0  0  0  0  0
    9.1056   -4.7211   16.2252 C   0  0  0  0  0  0  0  0  0  0  0  0
   -0.9222  -11.7378   17.0355 C   0  0  0  0  0  0  0  0  0  0  0  0
    6.5909   -7.0060   15.6891 C   0  0  0  0  0  0  0  0  0  0  0  0
    9.7927   -7.5272   18.6099 C   0  0  0  0  0  0  0  0  0  0  0  0
    3.3935  -10.1480   17.9238 C   0  0  0  0  0  0  0  0  0  0  0  0
   10.6783   -3.8189   18.1120 C   0  0  0  0  0  0  0  0  0  0  0  0
    7.7039   -7.0717   16.6871 C   0  0  0  0  0  0  0  0  0  0  0  0
   11.3155   -3.7798   22.9668 C   0  0  0  0  0  0  0  0  0  0  0  0
   10.1820   -2.3986   23.8759 C   0  0  0  0  0  0  0  0  0  0  0  0
   -0.3513  -11.3153   17.2829 C   0  0  0  0  0  0  0  0  0  0  0  0
   12.1192   -3.9233   23.0516 C   0  0  0  0  0  0  0  0  0  0  0  0
   10.9877   -4.0870   19.7510 C   0  0  0  0  0  0  0  0  0  0  0  0
    0.1785  -10.6491   16.3561 C   0  0  0  0  0  0  0  0  0  0  0  0
   10.2883   -5.4789   18.5122 C   0  0  0  0  0  0  0  0  0  0  0  0
    2.4732   -9.4071   16.3276 C   0  0  0  0  0  0  0  0  0  0  0  0
    4.0998   -8.7136   15.6484 C   0  0  0  0  0  0  0  0  0  0  0  0
    7.0927   -8.5225   16.6533 C   0  0  0  0  0  0  0  0  0  0  0  0
    5.3026   -8.5674   15.8005 C   0  0  0  0  0  0  0  0  0  0  0  0
    4.9993   -9.2250   17.3628 C   0  0  0  0  0  0  0  0  0  0  0  0
   10.4926   -5.9111   19.4800 C   0  0  0  0  0  0  0  0  0  0  0  0
  1 23  4  0
  2 23  4  0
  4 24  4  0
  5  7  4  0
  7 10  4  0
  8 12  1  0
  8 22  4  0
  9 28  4  0
  9 34  4  0
 14 15  4  0
 14 20  4  0
 20 26  4  0
M  END
$$$$

 Created by Python create_sdf_string function

 34 89  0  0  0  0  0  0  0  0999 V2000
   10.5782   -3.4352   24.5631 C   0  0  0  0  0  0  0  0  0  0  0  0
    8.3378   -6.5776   17.3519 C   0  0  0  0  0  0  0  0  0  0  0  0
   -1.4957  -10.9985   17.1798 C   0  0  0  0  0  0  0  0  0  0  0  0
    0.6250  -10.4754   17.6117 F   0  0  0  0  0  0  0  0  0  0  0  0
    0.9090  -10.7440   17.9845 C   0  0  0  0  0  0  0  0  0  0  0  0
   11.0110   -4.1406   22.1182 C   0  0  0  0  0  0  0  0  0  0  0  0
   10.4515   -6.0468   18.6486 I   0  0  0  0  0  0  0  0  0  0  0  0
    1.6857   -9.8876   17.3794 C   0  0  0  0  0  0  0  0  0  0  0  0
    4.5865   -9.4741   16.7745 C   0  0  0  0  0  0  0  0  0  0  0  0
   10.2089   -3.5653   21.3794 C   0  0  0  0  0  0  0  0  0  0  0  0
   10.7765   -4.4624   16.4530 N   0  0  0  0  0  0  0  0  0  0  0  0
   -2.4926  -11.3084   17.2119 O   0  0  0  0  0  0  0  0  0  0  0  0
    6.0429  -12.0737   17.9566 F   0  0  0  0  0  0  0  0  0  0  0  0
   11.1425   -3.5071   18.1570 C   0  0  0  0  0  0  0  0  0  0  0  0
    7.9077   -7.7809   17.0096 O   0  0  0  0  0  0  0  0  0  0  0  0
   11.2657   -4.5301   24.2756 O   0  0  0  0  0  0  0  0  0  0  0  0
    9.3095   -2.3627   23.5566 C   0  0  0  0  0  0  0  0  0  0  0  0
    0.3482  -11.0023   18.1753 C   0  0  0  0  0  0  0  0  0  0  0  0
    3.1294   -9.8296   16.0692 C   0  0  0  0  0  0  0  0  0  0  0  0
    3.1025   -8.9998   15.6795 Cl  0  0  0  0  0  0  0  0  0  0  0  0
    7.1025   -7.9157   16.6407 C   0  0  0  0  0  0  0  0  0  0  0  0
    4.1909   -7.7859   17.1542 O   0  0  0  0  0  0  0  0  0  0  0  0
   10.3762   -5.5472   19.8548 Br  0  0  0  0  0  0  0  0  0  0  0  0
   11.3415   -3.6329   23.0377 He  0  0  0  0  0  0  0  0  0  0  0  0
    9.4897   -7.3269   17.7062 He  0  0  0  0  0  0  0  0  0  0  0  0
    7.1729   -7.9308   17.5397 He  0  0  0  0  0  0  0  0  0  0  0  0
    9.5832   -3.3958   16.3165 He  0  0  0  0  0  0  0  0  0  0  0  0
    7.0139   -6.6066   15.1555 He  0  0  0  0  0  0  0  0  0  0  0  0
    8.9409   -7.0667   18.4861 He  0  0  0  0  0  0  0  0  0  0  0  0
   11.1967   -3.8038   23.9092 He  0  0  0  0  0  0  0  0  0  0  0  0
   11.0382   -4.9846   19.5835 He  0  0  0  0  0  0  0  0  0  0  0  0
   -0.0052  -10.6996   16.5307 He  0  0  0  0  0  0  0  0  0  0  0  0
   10.8924   -6.3250   17.0440 He  0  0  0  0  0  0  0  0  0  0  0  0
    6.5626   -7.6293   17.2684 He  0  0  0  0  0  0  0  0  0  0  0  0
  1  3  3  0
  1  6  4  0
  1  7  3  0
  1  8  4  0
  1 17  4  0
  1 19  1  0
  1 22  1  0
  2  5  3  0
  2  7  1  0
  2 12  3  0
  2 14  3  0
  2 16  4  0
  2 21  4  0
  3  5  4  0
  3  7  4  0
  3  8  4  0
  3 10  1  0
  3 11  3  0
  3 20  4  0
  3 21  3  0
  4  5  4  0
  4  6  2  0
  4  7  2  0
  4 10  2  0
  4 12  3  0
  4 19  1  0
  5  8  1  0
  5 12  3  0
  5 14  3  0
  5 16  3  0
  6  7  4  0
  6  8  2  0
  6 10  4  0
  6 13  3  0
  6 15  1  0
  6 16  3  0
  6 20  1  0
  6 21  4  0
  6 23  2  0
  7 13  3  0
  7 23  4  0
  8  9  2  0
  8 13  1  0
  8 16  4  0
  8 17  1  0
  8 20  2  0
  8 21  1  0
  8 22  1  0
  9 10  4  0
  9 12  2  0
  9 20  3  0
 10 12  2  0
 10 15  1  0
 10 16  3  0
 10 18  1  0
 10 19  2  0
 11 13  4  0
 11 14  3  0
 11 16  4  0
 11 20  2  0
 11 21  1  0
 12 14  4  0
 12 15  3  0
 12 16  2  0
 12 17  2  0
 12 18  2  0
 12 20  1  0
 12 21  2  0
 12 23  1  0
 13 16  4  0
 13 17  2  0
 13 18  3  0
 13 19  4  0
 13 20  2  0
 14 19  3  0
 14 20  3  0
 14 21  4  0
 14 23  1  0
 15 16  1  0
 15 21  2  0
 16 18  3  0
 16 22  4  0
 17 22  1  0
 18 21  3  0
 18 22  4  0
 20 22  4  0
 20 23  2  0
 21 22  3  0
 21 23  4  0
M  END
$$$$

 Created by Python create_sdf_string function

 34 19  0  0  0  0  0  0  0  0999 V2000
   11.0368   -3.8407   22.8611 C   0  0  0  0  0  0  0  0  0  0  0  0
   10.4409   -3.0486   24.3780 C   0  0  0  0  0  0  0  0  0  0  0  0
    8.5590   -6.6138   17.0797 C   0  0  0  0  0  0  0  0  0  0  0  0
   -0.8752  -11.1601   17.2600 C   0  0  0  0  0  0  0  0  0  0  0  0
    1.0601  -10.3592   17.4172 C   0  0  0  0  0  0  0  0  0  0  0  0
    9.1097   -7.3301   17.7882 C   0  0  0  0  0  0  0  0  0  0  0  0
    0.9767  -10.6887   17.9487 C   0  0  0  0  0  0  0  0  0  0  0  0
   10.9488   -4.0793   21.9871 C   0  0  0  0  0  0  0  0  0  0  0  0
   10.1027   -5.8617   18.6023 C   0  0  0  0  0  0  0  0  0  0  0  0
    1.7716  -10.0599   17.3324 C   0  0  0  0  0  0  0  0  0  0  0  0
    4.8259   -9.4476   17.1364 C   0  0  0  0  0  0  0  0  0  0  0  0
   10.5549   -3.7601   21.7112 C   0  0  0  0  0  0  0  0  0  0  0  0
    7.3055   -7.9618   17.4019 C   0  0  0  0  0  0  0  0  0  0  0  0
   10.5196   -4.1841   16.7592 C   0  0  0  0  0  0  0  0  0  0  0  0
    9.9092   -4.0571   16.2618 C   0  0  0  0  0  0  0  0  0  0  0  0
   -1.6882  -11.4345   17.2780 C   0  0  0  0  0  0  0  0  0  0  0  0
    7.0549   -6.6402   15.8442 C   0  0  0  0  0  0  0  0  0  0  0  0
    9.1867   -7.1021   18.1349 C   0  0  0  0  0  0  0  0  0  0  0  0
    5.1500  -10.3240   17.4856 O   0  0  0  0  0  0  0  0  0  0  0  0
   10.8895   -3.5569   18.1751 C   0  0  0  0  0  0  0  0  0  0  0  0
    7.8227   -8.2133   16.7272 C   0  0  0  0  0  0  0  0  0  0  0  0
   11.3824   -4.3457   24.0250 C   0  0  0  0  0  0  0  0  0  0  0  0
    9.9637   -2.4374   23.5303 C   0  0  0  0  0  0  0  0  0  0  0  0
    0.0951  -11.1282   18.2423 C   0  0  0  0  0  0  0  0  0  0  0  0
   11.0984   -3.9200   23.8612 C   0  0  0  0  0  0  0  0  0  0  0  0
   10.9998   -4.2282   19.4663 C   0  0  0  0  0  0  0  0  0  0  0  0
    0.0659  -10.5033   16.5485 C   0  0  0  0  0  0  0  0  0  0  0  0
   10.1012   -5.3205   17.5411 C   0  0  0  0  0  0  0  0  0  0  0  0
    3.1840   -9.5564   16.9374 C   0  0  0  0  0  0  0  0  0  0  0  0
    3.3070   -8.8466   16.4470 C   0  0  0  0  0  0  0  0  0  0  0  0
    6.8755   -7.9884   16.7317 C   0  0  0  0  0  0  0  0  0  0  0  0
    4.1921   -7.9780   16.5860 C   0  0  0  0  0  0  0  0  0  0  0  0
    6.0687   -8.2343   16.8726 C   0  0  0  0  0  0  0  0  0  0  0  0
   10.6285   -5.1329   19.8078 C   0  0  0  0  0  0  0  0  0  0  0  0
  1  8  4  0
  2 23  4  0
  2 25  4  0
  4 16  1  0
  4 27  4  0
  5  7  4  0
  5 27  4  0
  7 24  4  0
  8 12  4  0
  9 28  4  0
  9 34  4  0
 11 19  4  0
 14 15  4  0
 14 20  4  0
 20 26  4  0
 26 34  4  0
 29 30  4  0
 30 32  4  0
 31 33  4  0
M  END
$$$$

 Created by Python create_sdf_string function

 34106  0  0  0  0  0  0  0  0999 V2000
   10.3434   -2.7501   24.3622 C   0  0  0  0  0  0  0  0  0  0  0  0
    8.7648   -6.4589   18.2516 O   0  0  0  0  0  0  0  0  0  0  0  0
    0.4478  -11.9878   17.6113 Cl  0  0  0  0  0  0  0  0  0  0  0  0
    0.7231  -11.7492   16.1465 S   0  0  0  0  0  0  0  0  0  0  0  0
   10.3595   -8.3898   17.9035 F   0  0  0  0  0  0  0  0  0  0  0  0
    0.9173  -10.7478   17.6151 C   0  0  0  0  0  0  0  0  0  0  0  0
   11.0881   -3.7664   22.1024 C   0  0  0  0  0  0  0  0  0  0  0  0
   10.4407   -6.1817   18.9631 C   0  0  0  0  0  0  0  0  0  0  0  0
    4.6563   -9.7661   17.5843 C   0  0  0  0  0  0  0  0  0  0  0  0
   10.0086   -3.2603   22.4375 P   0  0  0  0  0  0  0  0  0  0  0  0
    6.9923   -7.2786   17.4029 F   0  0  0  0  0  0  0  0  0  0  0  0
   10.5098   -4.0120   16.6827 C   0  0  0  0  0  0  0  0  0  0  0  0
   -1.4532  -10.1273   17.5559 C   0  0  0  0  0  0  0  0  0  0  0  0
    4.8563  -11.8799   16.5896 O   0  0  0  0  0  0  0  0  0  0  0  0
   10.6629   -3.4787   17.7122 C   0  0  0  0  0  0  0  0  0  0  0  0
    7.9950   -8.4826   17.1581 C   0  0  0  0  0  0  0  0  0  0  0  0
    9.9398   -3.0564   23.5645 C   0  0  0  0  0  0  0  0  0  0  0  0
    0.8653  -11.1708   18.9092 C   0  0  0  0  0  0  0  0  0  0  0  0
   11.4561   -3.6496   23.5034 Br  0  0  0  0  0  0  0  0  0  0  0  0
   10.7112   -4.2779   19.3480 C   0  0  0  0  0  0  0  0  0  0  0  0
   -0.1428  -10.4965   16.2081 C   0  0  0  0  0  0  0  0  0  0  0  0
   11.0106   -6.4120   16.2295 I   0  0  0  0  0  0  0  0  0  0  0  0
    3.2292   -9.7359   17.5849 C   0  0  0  0  0  0  0  0  0  0  0  0
    3.5314   -7.8846   15.6552 I   0  0  0  0  0  0  0  0  0  0  0  0
   10.5763   -4.7250   19.7573 C   0  0  0  0  0  0  0  0  0  0  0  0
   11.6998   -2.8728   24.2523 He  0  0  0  0  0  0  0  0  0  0  0  0
    1.3974  -10.1284   18.2253 He  0  0  0  0  0  0  0  0  0  0  0  0
   10.7599   -2.3785   15.7889 He  0  0  0  0  0  0  0  0  0  0  0  0
    8.0468   -7.3596   13.9982 He  0  0  0  0  0  0  0  0  0  0  0  0
   10.9726   -4.6836   19.3328 He  0  0  0  0  0  0  0  0  0  0  0  0
   10.3509   -4.1894   23.7538 He  0  0  0  0  0  0  0  0  0  0  0  0
    7.1855   -7.6728   16.2497 He  0  0  0  0  0  0  0  0  0  0  0  0
    5.6059   -8.7644   16.7467 He  0  0  0  0  0  0  0  0  0  0  0  0
    7.0048   -7.1714   18.2813 He  0  0  0  0  0  0  0  0  0  0  0  0
  1  2  2  0
  1  3  3  0
  1  7  1  0
  1 17  4  0
  1 19  1  0
  1 21  1  0
  2  3  3  0
  2  8  3  0
  2 12  3  0
  2 19  3  0
  2 23  1  0
  3  4  4  0
  3  5  1  0
  3  7  4  0
  3 10  4  0
  3 11  3  0
  3 12  4  0
  3 14  1  0
  3 15  4  0
  3 16  2  0
  3 17  4  0
  3 20  2  0
  3 24  3  0
  3 25  3  0
  4  5  1  0
  4  7  3  0
  4 11  3  0
  4 15  2  0
  4 16  3  0
  4 17  4  0
  4 19  3  0
  4 21  3  0
  4 22  3  0
  4 24  4  0
  5  7  1  0
  5  9  4  0
  5 10  2  0
  5 12  4  0
  5 14  3  0
  5 16  4  0
  5 17  1  0
  5 19  3  0
  5 20  3  0
  5 22  3  0
  5 25  4  0
  6  7  4  0
  6 16  1  0
  6 18  4  0
  6 23  4  0
  6 24  3  0
  7 11  2  0
  7 16  2  0
  7 18  4  0
  7 22  4  0
  7 23  1  0
  8  9  1  0
  8 11  2  0
  8 13  3  0
  8 14  4  0
  8 25  3  0
  9 13  1  0
  9 14  3  0
  9 18  4  0
  9 19  3  0
  9 21  3  0
  9 24  1  0
  9 25  3  0
 10 15  2  0
 10 16  4  0
 10 19  4  0
 10 21  4  0
 10 22  1  0
 10 23  1  0
 10 25  3  0
 11 12  1  0
 11 17  1  0
 11 18  3  0
 11 20  1  0
 11 22  4  0
 11 25  2  0
 12 13  4  0
 12 14  2  0
 12 15  4  0
 12 18  3  0
 12 22  2  0
 13 14  3  0
 13 18  1  0
 13 19  1  0
 14 21  2  0
 15 19  2  0
 15 20  4  0
 15 24  1  0
 15 25  3  0
 17 21  2  0
 17 24  2  0
 18 22  3  0
 18 24  1  0
 18 25  4  0
 19 20  3  0
 19 21  2  0
 19 23  2  0
 20 25  3  0
 21 25  1  0
 22 23  2  0
 22 25  1  0
 23 24  4  0
M  END
$$$$

 Created by Python create_sdf_string function

 34 21  0  0  0  0  0  0  0  0999 V2000
   11.3468   -3.2783   24.2173 C   0  0  0  0  0  0  0  0  0  0  0  0
   10.2287   -2.6426   24.5962 C   0  0  0  0  0  0  0  0  0  0  0  0
    9.3488   -6.4890   17.7769 C   0  0  0  0  0  0  0  0  0  0  0  0
    0.0069  -11.4472   18.0526 C   0  0  0  0  0  0  0  0  0  0  0  0
    0.3117  -10.5543   16.5624 C   0  0  0  0  0  0  0  0  0  0  0  0
    9.3538   -7.5727   17.8065 C   0  0  0  0  0  0  0  0  0  0  0  0
    1.3155  -10.6162   17.7928 C   0  0  0  0  0  0  0  0  0  0  0  0
   11.1088   -4.1551   21.6484 C   0  0  0  0  0  0  0  0  0  0  0  0
   10.0733   -5.9726   18.7125 C   0  0  0  0  0  0  0  0  0  0  0  0
    2.4717  -10.3408   17.8154 C   0  0  0  0  0  0  0  0  0  0  0  0
    4.6835   -9.2658   17.2360 C   0  0  0  0  0  0  0  0  0  0  0  0
   10.5342   -3.4187   22.3801 C   0  0  0  0  0  0  0  0  0  0  0  0
    7.0398   -7.5693   17.1694 C   0  0  0  0  0  0  0  0  0  0  0  0
   10.4834   -4.0377   16.8172 C   0  0  0  0  0  0  0  0  0  0  0  0
   10.6850   -3.6621   16.1797 C   0  0  0  0  0  0  0  0  0  0  0  0
   -0.9603  -11.3115   17.5400 C   0  0  0  0  0  0  0  0  0  0  0  0
    7.8668   -7.7275   15.4290 C   0  0  0  0  0  0  0  0  0  0  0  0
   10.6491   -4.7750   19.7812 C   0  0  0  0  0  0  0  0  0  0  0  0
    4.6601  -10.3425   17.7452 O   0  0  0  0  0  0  0  0  0  0  0  0
   10.7101   -3.6514   17.9160 C   0  0  0  0  0  0  0  0  0  0  0  0
    8.0649   -8.3359   17.0523 C   0  0  0  0  0  0  0  0  0  0  0  0
   10.8652   -3.7391   23.3093 C   0  0  0  0  0  0  0  0  0  0  0  0
    9.7657   -2.6007   23.9444 C   0  0  0  0  0  0  0  0  0  0  0  0
    0.9686  -11.1133   18.7021 C   0  0  0  0  0  0  0  0  0  0  0  0
   11.1324   -3.4836   23.5025 C   0  0  0  0  0  0  0  0  0  0  0  0
   10.8170   -3.6503   19.1390 C   0  0  0  0  0  0  0  0  0  0  0  0
   -0.3719  -10.6459   16.4235 C   0  0  0  0  0  0  0  0  0  0  0  0
    9.5222   -5.6616   16.8039 C   0  0  0  0  0  0  0  0  0  0  0  0
    3.0402   -9.6331   17.2808 C   0  0  0  0  0  0  0  0  0  0  0  0
    3.6012   -8.7455   16.6619 C   0  0  0  0  0  0  0  0  0  0  0  0
    6.8878   -8.0406   16.1251 C   0  0  0  0  0  0  0  0  0  0  0  0
    5.5830   -8.6051   16.9241 C   0  0  0  0  0  0  0  0  0  0  0  0
    6.8128   -7.4474   17.6889 C   0  0  0  0  0  0  0  0  0  0  0  0
   10.5990   -4.8458   19.7650 C   0  0  0  0  0  0  0  0  0  0  0  0
  1 25  4  0
  2 23  4  0
  3  9  4  0
  4 24  4  0
  5 27  4  0
  6 21  4  0
  7 10  4  0
  7 24  4  0
  9 34  4  0
 10 29  4  0
 11 19  4  0
 11 32  1  0
 12 25  4  0
 14 15  4  0
 14 20  4  0
 16 27  4  0
 17 31  4  0
 18 34  4  0
 20 26  4  0
 26 34  4  0
 29 30  4  0
M  END
$$$$

 Created by Python create_sdf_string function

 34 83  0  0  0  0  0  0  0  0999 V2000
   10.7326   -3.3995   24.9084 F   0  0  0  0  0  0  0  0  0  0  0  0
   10.0989   -2.3323   25.1666 N   0  0  0  0  0  0  0  0  0  0  0  0
    9.0982   -6.8860   17.3093 C   0  0  0  0  0  0  0  0  0  0  0  0
   -3.0059  -10.6760   17.7552 C   0  0  0  0  0  0  0  0  0  0  0  0
   11.1312   -3.6198   22.0019 C   0  0  0  0  0  0  0  0  0  0  0  0
   10.0215   -5.6192   18.4500 C   0  0  0  0  0  0  0  0  0  0  0  0
    2.2977  -11.7337   18.2531 C   0  0  0  0  0  0  0  0  0  0  0  0
    4.6563   -9.4427   17.6797 O   0  0  0  0  0  0  0  0  0  0  0  0
   11.6085   -4.9584   23.7792 C   0  0  0  0  0  0  0  0  0  0  0  0
   11.0548   -4.0540   16.4978 C   0  0  0  0  0  0  0  0  0  0  0  0
   10.1577   -3.4089   14.0470 O   0  0  0  0  0  0  0  0  0  0  0  0
   -1.0581  -11.1241   16.9400 C   0  0  0  0  0  0  0  0  0  0  0  0
   10.2459   -4.8200   20.6808 O   0  0  0  0  0  0  0  0  0  0  0  0
   10.2373   -3.5676   17.4348 C   0  0  0  0  0  0  0  0  0  0  0  0
    8.1073   -8.4364   16.7196 C   0  0  0  0  0  0  0  0  0  0  0  0
   10.0204   -2.3968   24.3061 C   0  0  0  0  0  0  0  0  0  0  0  0
    1.3457  -11.1130   18.7753 C   0  0  0  0  0  0  0  0  0  0  0  0
   10.3906   -2.1451   22.5064 Cl  0  0  0  0  0  0  0  0  0  0  0  0
   11.1224   -4.0088   19.6297 C   0  0  0  0  0  0  0  0  0  0  0  0
   -0.6277  -10.5809   15.6132 C   0  0  0  0  0  0  0  0  0  0  0  0
    3.3328   -9.6717   16.6075 Cl  0  0  0  0  0  0  0  0  0  0  0  0
    4.0475   -7.7357   17.4359 F   0  0  0  0  0  0  0  0  0  0  0  0
    6.6302   -8.9413   14.7857 C   0  0  0  0  0  0  0  0  0  0  0  0
   10.0913   -4.7620   19.6531 C   0  0  0  0  0  0  0  0  0  0  0  0
    0.3822   -9.9445   15.6408 He  0  0  0  0  0  0  0  0  0  0  0  0
    9.5298   -8.6203   15.6277 He  0  0  0  0  0  0  0  0  0  0  0  0
    1.5824  -10.6295   17.5091 He  0  0  0  0  0  0  0  0  0  0  0  0
    7.3033   -7.3302   19.1216 He  0  0  0  0  0  0  0  0  0  0  0  0
    7.8883   -9.4724   16.2933 He  0  0  0  0  0  0  0  0  0  0  0  0
    4.5525   -9.8678   18.6179 He  0  0  0  0  0  0  0  0  0  0  0  0
   10.9960   -5.7035   21.8738 He  0  0  0  0  0  0  0  0  0  0  0  0
    9.7085   -5.6298   16.3012 He  0  0  0  0  0  0  0  0  0  0  0  0
    4.7892   -9.0344   16.0721 He  0  0  0  0  0  0  0  0  0  0  0  0
    7.0900   -8.1769   18.2387 He  0  0  0  0  0  0  0  0  0  0  0  0
  1  6  1  0
  1  7  1  0
  1 10  2  0
  1 15  4  0
  1 18  2  0
  1 21  3  0
  2  3  4  0
  2 11  4  0
  2 12  3  0
  2 13  2  0
  3  4  3  0
  3  6  3  0
  3  8  4  0
  3 10  4  0
  3 14  1  0
  3 16  2  0
  3 19  4  0
  3 21  4  0
  3 22  4  0
  3 24  4  0
  4  6  1  0
  4  8  1  0
  4 15  3  0
  4 19  2  0
  4 24  2  0
  5  8  2  0
  5 13  1  0
  5 18  1  0
  6 12  3  0
  6 13  3  0
  6 14  2  0
  6 22  3  0
  6 24  4  0
  7  8  4  0
  7 10  4  0
  7 23  3  0
  7 24  2  0
  8  9  1  0
  8 11  1  0
  8 18  2  0
  8 19  3  0
  8 23  2  0
  9 11  4  0
  9 14  4  0
  9 15  2  0
  9 19  2  0
  9 21  3  0
 10 12  3  0
 10 13  3  0
 10 14  4  0
 10 16  1  0
 10 24  1  0
 11 13  1  0
 11 17  1  0
 11 19  2  0
 11 21  2  0
 11 22  4  0
 11 23  2  0
 12 14  1  0
 12 15  2  0
 12 16  1  0
 12 17  3  0
 12 21  4  0
 12 22  3  0
 12 23  2  0
 13 15  1  0
 13 16  1  0
 13 19  2  0
 13 20  4  0
 13 23  1  0
 13 24  3  0
 14 15  4  0
 14 23  3  0
 16 20  1  0
 16 22  2  0
 17 19  2  0
 17 21  1  0
 18 21  2  0
 19 23  4  0
 19 24  4  0
 20 22  1  0
 21 22  3  0
 23 24  4  0
M  END
$$$$

 Created by Python create_sdf_string function

 34 22  0  0  0  0  0  0  0  0999 V2000
   10.8200   -3.7278   24.6851 C   0  0  0  0  0  0  0  0  0  0  0  0
    9.9618   -2.1123   24.9459 N   0  0  0  0  0  0  0  0  0  0  0  0
    8.9969   -6.5069   17.3384 C   0  0  0  0  0  0  0  0  0  0  0  0
   -1.8046  -11.2592   17.5021 C   0  0  0  0  0  0  0  0  0  0  0  0
    0.6775  -10.1319   16.1028 C   0  0  0  0  0  0  0  0  0  0  0  0
    8.5294   -7.8464   15.8960 C   0  0  0  0  0  0  0  0  0  0  0  0
    1.2879  -10.5472   17.6752 C   0  0  0  0  0  0  0  0  0  0  0  0
   10.8268   -3.6334   22.1482 C   0  0  0  0  0  0  0  0  0  0  0  0
    9.7778   -5.5512   18.4960 C   0  0  0  0  0  0  0  0  0  0  0  0
    2.2364  -10.6660   18.0933 C   0  0  0  0  0  0  0  0  0  0  0  0
    4.7186   -9.4376   17.5964 C   0  0  0  0  0  0  0  0  0  0  0  0
   11.2426   -4.6356   23.6206 C   0  0  0  0  0  0  0  0  0  0  0  0
    7.4054   -7.3836   18.0380 C   0  0  0  0  0  0  0  0  0  0  0  0
   10.7306   -3.9855   16.7624 C   0  0  0  0  0  0  0  0  0  0  0  0
   10.5079   -3.7221   15.5800 C   0  0  0  0  0  0  0  0  0  0  0  0
   -0.7732  -10.9903   17.2311 C   0  0  0  0  0  0  0  0  0  0  0  0
    7.3136   -8.6061   16.1559 C   0  0  0  0  0  0  0  0  0  0  0  0
   10.5469   -4.2788   20.8671 O   0  0  0  0  0  0  0  0  0  0  0  0
    4.4355   -9.8143   17.9492 C   0  0  0  0  0  0  0  0  0  0  0  0
   10.5360   -3.7461   17.3765 C   0  0  0  0  0  0  0  0  0  0  0  0
    8.1090   -8.0067   16.5520 C   0  0  0  0  0  0  0  0  0  0  0  0
   11.1590   -4.8337   22.0347 C   0  0  0  0  0  0  0  0  0  0  0  0
   10.2993   -2.5237   24.0958 C   0  0  0  0  0  0  0  0  0  0  0  0
    0.6685  -10.9275   18.2873 C   0  0  0  0  0  0  0  0  0  0  0  0
   10.4516   -2.6643   22.8111 C   0  0  0  0  0  0  0  0  0  0  0  0
   10.9156   -3.9844   19.8384 C   0  0  0  0  0  0  0  0  0  0  0  0
   -0.3745  -10.5841   15.9999 C   0  0  0  0  0  0  0  0  0  0  0  0
    9.5324   -5.5363   16.4918 C   0  0  0  0  0  0  0  0  0  0  0  0
    3.0570   -9.4342   16.9510 C   0  0  0  0  0  0  0  0  0  0  0  0
    4.3935   -8.5418   17.0656 C   0  0  0  0  0  0  0  0  0  0  0  0
    6.6022   -8.8319   15.9562 C   0  0  0  0  0  0  0  0  0  0  0  0
    4.4515   -9.1640   16.6444 C   0  0  0  0  0  0  0  0  0  0  0  0
    7.1041   -7.8855   17.7712 C   0  0  0  0  0  0  0  0  0  0  0  0
   10.3401   -4.8390   19.1461 C   0  0  0  0  0  0  0  0  0  0  0  0
  1 12  4  0
  1 23  4  0
  2 23  1  0
  3  9  4  0
  4 16  1  0
  5 27  4  0
  6 21  4  0
  7 10  1  0
  7 24  4  0
  8 18  1  0
  8 22  4  0
  8 25  4  0
  9 34  4  0
 11 19  2  0
 12 22  4  0
 13 33  4  0
 14 20  4  0
 16 27  4  0
 17 31  4  0
 18 26  4  0
 23 25  4  0
 26 34  4  0
M  END
$$$$

 Created by Python create_sdf_string function

 34 76  0  0  0  0  0  0  0  0999 V2000
    9.9066   -2.4462   25.6341 N   0  0  0  0  0  0  0  0  0  0  0  0
    9.7306   -5.8123   17.8949 C   0  0  0  0  0  0  0  0  0  0  0  0
    1.3377   -9.0959   16.3511 P   0  0  0  0  0  0  0  0  0  0  0  0
    8.7403   -7.8774   15.3225 F   0  0  0  0  0  0  0  0  0  0  0  0
    1.5949  -10.9326   17.6016 O   0  0  0  0  0  0  0  0  0  0  0  0
   10.5524   -4.0610   22.3988 C   0  0  0  0  0  0  0  0  0  0  0  0
    2.7430  -11.2665   17.9945 N   0  0  0  0  0  0  0  0  0  0  0  0
    4.6802   -9.4139   17.5388 P   0  0  0  0  0  0  0  0  0  0  0  0
   11.4028   -5.9091   23.7147 N   0  0  0  0  0  0  0  0  0  0  0  0
    8.0231   -8.9892   17.3837 N   0  0  0  0  0  0  0  0  0  0  0  0
   10.9051   -3.9013   16.6458 I   0  0  0  0  0  0  0  0  0  0  0  0
   10.3634   -4.2978   17.7080 N   0  0  0  0  0  0  0  0  0  0  0  0
    8.4591   -8.1988   16.6584 C   0  0  0  0  0  0  0  0  0  0  0  0
   11.6969   -4.1297   21.2760 C   0  0  0  0  0  0  0  0  0  0  0  0
   10.4023   -2.5869   24.2526 C   0  0  0  0  0  0  0  0  0  0  0  0
    0.6819  -11.0295   18.4348 C   0  0  0  0  0  0  0  0  0  0  0  0
   10.7063   -1.3622   22.4372 C   0  0  0  0  0  0  0  0  0  0  0  0
   -0.3821  -10.5539   16.4953 C   0  0  0  0  0  0  0  0  0  0  0  0
    8.4627   -3.7311   17.6450 C   0  0  0  0  0  0  0  0  0  0  0  0
    3.2126   -9.2156   16.9734 C   0  0  0  0  0  0  0  0  0  0  0  0
    6.4995   -8.9181   15.5970 O   0  0  0  0  0  0  0  0  0  0  0  0
    4.3951   -9.4178   17.7681 B   0  0  0  0  0  0  0  0  0  0  0  0
   10.3106   -5.2448   19.0422 C   0  0  0  0  0  0  0  0  0  0  0  0
   10.7343   -3.4366   24.5780 He  0  0  0  0  0  0  0  0  0  0  0  0
   -2.0205  -10.9858   15.9163 He  0  0  0  0  0  0  0  0  0  0  0  0
    9.9036   -5.1905   17.9554 He  0  0  0  0  0  0  0  0  0  0  0  0
    9.4267   -4.2321   16.2364 He  0  0  0  0  0  0  0  0  0  0  0  0
   -1.0507  -10.5951   17.2301 He  0  0  0  0  0  0  0  0  0  0  0  0
    6.6615   -7.0607   15.2215 He  0  0  0  0  0  0  0  0  0  0  0  0
   10.8053   -4.4953   21.1080 He  0  0  0  0  0  0  0  0  0  0  0  0
    5.2980  -10.7678   17.4821 He  0  0  0  0  0  0  0  0  0  0  0  0
   11.1611   -4.3757   20.3781 He  0  0  0  0  0  0  0  0  0  0  0  0
    3.0470   -7.2680   16.8782 He  0  0  0  0  0  0  0  0  0  0  0  0
    8.2838   -7.2768   18.2659 He  0  0  0  0  0  0  0  0  0  0  0  0
  1  2  3  0
  1  9  1  0
  1 10  3  0
  1 12  2  0
  1 15  1  0
  1 22  2  0
  2  7  2  0
  2  9  1  0
  2 10  3  0
  2 11  4  0
  2 13  4  0
  2 14  2  0
  2 15  1  0
  2 16  3  0
  2 18  4  0
  2 20  1  0
  3  8  1  0
  3  9  3  0
  3 12  2  0
  3 14  1  0
  3 18  4  0
  3 19  2  0
  3 21  1  0
  3 22  4  0
  4  7  1  0
  4  8  1  0
  4 13  4  0
  4 14  1  0
  4 18  2  0
  4 20  2  0
  4 21  4  0
  4 22  3  0
  5  6  4  0
  5 16  4  0
  5 18  4  0
  6  9  4  0
  6 18  2  0
  7 10  1  0
  7 14  3  0
  7 18  3  0
  7 21  4  0
  7 23  1  0
  8  9  3  0
  8 13  1  0
  8 14  3  0
  9 10  4  0
  9 11  4  0
  9 15  1  0
  9 18  1  0
 10 18  1  0
 10 20  1  0
 10 23  4  0
 11 12  4  0
 11 19  3  0
 12 14  2  0
 12 16  4  0
 12 19  3  0
 12 21  1  0
 13 20  4  0
 14 15  3  0
 14 23  1  0
 15 16  2  0
 15 17  2  0
 15 19  2  0
 16 17  3  0
 16 21  2  0
 16 22  2  0
 17 20  3  0
 17 21  1  0
 17 23  4  0
 18 19  2  0
 18 20  1  0
 18 22  3  0
 20 21  2  0
 20 22  4  0
 21 23  2  0
M  END
$$$$

 Created by Python create_sdf_string function

 34 20  0  0  0  0  0  0  0  0999 V2000
   10.7314   -3.9765   24.7072 C   0  0  0  0  0  0  0  0  0  0  0  0
   10.0557   -2.3560   25.1622 N   0  0  0  0  0  0  0  0  0  0  0  0
    9.4592   -6.0543   17.6570 C   0  0  0  0  0  0  0  0  0  0  0  0
   -1.2668  -10.9298   16.2888 C   0  0  0  0  0  0  0  0  0  0  0  0
    1.4430   -9.4192   16.5161 C   0  0  0  0  0  0  0  0  0  0  0  0
    8.1855   -7.8024   15.5896 C   0  0  0  0  0  0  0  0  0  0  0  0
    1.1988  -10.7733   17.8936 C   0  0  0  0  0  0  0  0  0  0  0  0
   11.0836   -4.0268   22.5148 C   0  0  0  0  0  0  0  0  0  0  0  0
    9.9264   -5.5959   18.2697 C   0  0  0  0  0  0  0  0  0  0  0  0
    2.5827  -10.7710   18.2581 C   0  0  0  0  0  0  0  0  0  0  0  0
    4.9243   -9.1676   16.9942 C   0  0  0  0  0  0  0  0  0  0  0  0
   11.2051   -4.6503   23.6662 C   0  0  0  0  0  0  0  0  0  0  0  0
    7.6985   -8.1712   17.6881 C   0  0  0  0  0  0  0  0  0  0  0  0
   10.6191   -3.8665   17.0977 N   0  0  0  0  0  0  0  0  0  0  0  0
    9.4621   -4.2926   16.1110 O   0  0  0  0  0  0  0  0  0  0  0  0
   -0.6651  -10.9141   17.0066 C   0  0  0  0  0  0  0  0  0  0  0  0
    6.6627   -7.6806   16.0538 C   0  0  0  0  0  0  0  0  0  0  0  0
   10.9130   -4.2528   20.8226 C   0  0  0  0  0  0  0  0  0  0  0  0
    5.1867   -9.9797   17.5308 O   0  0  0  0  0  0  0  0  0  0  0  0
   10.5919   -3.9978   17.6563 N   0  0  0  0  0  0  0  0  0  0  0  0
    8.1723   -7.6811   16.0663 C   0  0  0  0  0  0  0  0  0  0  0  0
   11.2091   -3.9408   21.4789 C   0  0  0  0  0  0  0  0  0  0  0  0
   10.3038   -2.4961   24.1626 C   0  0  0  0  0  0  0  0  0  0  0  0
    1.0204  -11.0557   18.2058 C   0  0  0  0  0  0  0  0  0  0  0  0
   10.6501   -2.4166   22.9784 C   0  0  0  0  0  0  0  0  0  0  0  0
   10.9355   -4.2699   20.0913 C   0  0  0  0  0  0  0  0  0  0  0  0
    0.2293  -10.2292   16.6917 C   0  0  0  0  0  0  0  0  0  0  0  0
    9.8653   -4.4663   17.1976 C   0  0  0  0  0  0  0  0  0  0  0  0
    3.0482   -9.4339   17.0565 C   0  0  0  0  0  0  0  0  0  0  0  0
    3.8775   -8.2339   16.4301 C   0  0  0  0  0  0  0  0  0  0  0  0
    6.5770   -8.5493   16.1941 C   0  0  0  0  0  0  0  0  0  0  0  0
    3.8068   -9.2944   17.0722 C   0  0  0  0  0  0  0  0  0  0  0  0
    8.5644   -7.4418   17.8489 C   0  0  0  0  0  0  0  0  0  0  0  0
   10.4021   -5.2986   19.2503 C   0  0  0  0  0  0  0  0  0  0  0  0
  1 12  4  0
  2 23  1  0
  3  9  4  0
  5 27  4  0
  6 21  4  0
  7 10  4  0
  7 24  4  0
  8 12  4  0
  8 22  1  0
  9 34  4  0
 10 24  4  0
 11 19  4  0
 13 33  4  0
 14 20  4  0
 16 27  4  0
 17 31  4  0
 18 26  1  0
 23 25  4  0
 26 34  4  0
 29 32  4  0
M  END
$$$$

 Created by Python create_sdf_string function

 34 65  0  0  0  0  0  0  0  0999 V2000
   10.2259   -5.5840   24.8856 F   0  0  0  0  0  0  0  0  0  0  0  0
    7.4013   -4.1254   18.9572 P   0  0  0  0  0  0  0  0  0  0  0  0
    7.1284   -8.1873   14.3109 C   0  0  0  0  0  0  0  0  0  0  0  0
    1.1606  -10.6242   17.9270 C   0  0  0  0  0  0  0  0  0  0  0  0
   11.3805   -4.1181   21.8580 O   0  0  0  0  0  0  0  0  0  0  0  0
   10.2403   -5.2229   18.5548 C   0  0  0  0  0  0  0  0  0  0  0  0
    2.6227  -11.5866   18.4420 O   0  0  0  0  0  0  0  0  0  0  0  0
    5.0468   -9.3628   16.7462 C   0  0  0  0  0  0  0  0  0  0  0  0
    6.0426   -7.6934   17.3854 C   0  0  0  0  0  0  0  0  0  0  0  0
   -0.3469  -11.0608   16.7952 N   0  0  0  0  0  0  0  0  0  0  0  0
    7.1014   -8.3361   14.8881 N   0  0  0  0  0  0  0  0  0  0  0  0
   10.1518   -4.6014   22.0334 O   0  0  0  0  0  0  0  0  0  0  0  0
   12.5102   -3.3305   20.3510 N   0  0  0  0  0  0  0  0  0  0  0  0
    9.7414   -2.6249   24.3021 C   0  0  0  0  0  0  0  0  0  0  0  0
    1.0001  -11.1776   18.2804 Br  0  0  0  0  0  0  0  0  0  0  0  0
   11.3665   -4.4213   19.5927 C   0  0  0  0  0  0  0  0  0  0  0  0
    0.7237  -10.4843   16.6063 Br  0  0  0  0  0  0  0  0  0  0  0  0
    5.8415   -7.5806   15.1587 C   0  0  0  0  0  0  0  0  0  0  0  0
    4.4123   -7.9307   17.8556 O   0  0  0  0  0  0  0  0  0  0  0  0
    9.2485   -8.3537   18.1505 N   0  0  0  0  0  0  0  0  0  0  0  0
    9.9148   -5.7263   19.1166 C   0  0  0  0  0  0  0  0  0  0  0  0
   10.3772   -2.7069   25.0962 He  0  0  0  0  0  0  0  0  0  0  0  0
   -1.8484  -12.1009   17.3259 He  0  0  0  0  0  0  0  0  0  0  0  0
    1.7006   -9.7476   15.9762 He  0  0  0  0  0  0  0  0  0  0  0  0
   10.4431   -4.6434   23.3609 He  0  0  0  0  0  0  0  0  0  0  0  0
   10.3743   -3.5559   17.1325 He  0  0  0  0  0  0  0  0  0  0  0  0
    8.3663   -4.9172   16.9152 He  0  0  0  0  0  0  0  0  0  0  0  0
    7.2514   -9.7815   18.2432 He  0  0  0  0  0  0  0  0  0  0  0  0
   10.2735   -3.9870   17.8386 He  0  0  0  0  0  0  0  0  0  0  0  0
    8.4662   -8.2184   15.9757 He  0  0  0  0  0  0  0  0  0  0  0  0
   11.1903   -1.9927   22.0337 He  0  0  0  0  0  0  0  0  0  0  0  0
   10.2851   -4.7911   15.7972 He  0  0  0  0  0  0  0  0  0  0  0  0
    3.1185   -9.5428   17.8440 He  0  0  0  0  0  0  0  0  0  0  0  0
    2.9258   -9.4562   17.9736 He  0  0  0  0  0  0  0  0  0  0  0  0
  1  6  2  0
  1  8  4  0
  1 11  2  0
  1 12  4  0
  1 16  3  0
  1 17  4  0
  1 18  4  0
  2  3  4  0
  2  4  2  0
  2  5  1  0
  2  9  3  0
  2 12  2  0
  2 13  4  0
  2 16  4  0
  2 21  2  0
  3  5  3  0
  3  8  4  0
  3  9  4  0
  3 11  4  0
  4  7  4  0
  4 12  2  0
  4 15  4  0
  4 20  4  0
  5 10  1  0
  5 11  2  0
  5 13  3  0
  5 16  4  0
  6  7  2  0
  6 10  1  0
  6 12  3  0
  6 19  1  0
  6 20  4  0
  6 21  4  0
  7  9  4  0
  7 10  1  0
  7 14  1  0
  7 15  3  0
  7 16  2  0
  7 21  4  0
  8  9  4  0
  8 11  2  0
  8 15  4  0
  8 20  2  0
  9 10  1  0
  9 21  2  0
 10 16  2  0
 10 19  4  0
 10 21  4  0
 11 16  2  0
 11 20  1  0
 11 21  3  0
 12 16  4  0
 12 21  4  0
 13 15  2  0
 13 16  3  0
 14 18  1  0
 14 20  3  0
 15 20  1  0
 16 18  3  0
 16 20  2  0
 16 21  4  0
 17 18  4  0
 17 20  1  0
 19 20  4  0
 19 21  2  0
M  END
$$$$

 Created by Python create_sdf_string function

 34 14  0  0  0  0  0  0  0  0999 V2000
   10.9349   -4.4172   24.5566 C   0  0  0  0  0  0  0  0  0  0  0  0
   10.2964   -2.8222   24.9625 C   0  0  0  0  0  0  0  0  0  0  0  0
    9.3586   -5.1468   19.1237 C   0  0  0  0  0  0  0  0  0  0  0  0
   -0.9131  -11.7101   17.5116 C   0  0  0  0  0  0  0  0  0  0  0  0
    1.6251   -9.6236   16.4231 C   0  0  0  0  0  0  0  0  0  0  0  0
    7.1880   -8.1269   15.4170 C   0  0  0  0  0  0  0  0  0  0  0  0
    1.1277  -11.0105   18.1356 C   0  0  0  0  0  0  0  0  0  0  0  0
   11.2008   -4.1219   21.7005 C   0  0  0  0  0  0  0  0  0  0  0  0
   10.0023   -5.6483   18.3655 C   0  0  0  0  0  0  0  0  0  0  0  0
    2.3470  -10.9784   18.5838 C   0  0  0  0  0  0  0  0  0  0  0  0
    5.0914   -8.6306   16.8317 C   0  0  0  0  0  0  0  0  0  0  0  0
   11.1033   -4.2926   23.3205 C   0  0  0  0  0  0  0  0  0  0  0  0
    6.1592   -8.0872   17.3858 C   0  0  0  0  0  0  0  0  0  0  0  0
   10.5766   -3.8486   17.1527 C   0  0  0  0  0  0  0  0  0  0  0  0
    8.9919   -5.6862   16.6572 C   0  0  0  0  0  0  0  0  0  0  0  0
    0.0519  -10.7085   16.9082 C   0  0  0  0  0  0  0  0  0  0  0  0
    7.3112   -8.1338   15.6038 C   0  0  0  0  0  0  0  0  0  0  0  0
   10.9120   -4.2854   22.2410 C   0  0  0  0  0  0  0  0  0  0  0  0
    6.9866   -8.3449   17.7310 C   0  0  0  0  0  0  0  0  0  0  0  0
   10.4348   -4.1252   17.6757 C   0  0  0  0  0  0  0  0  0  0  0  0
    8.2703   -7.7816   16.0821 C   0  0  0  0  0  0  0  0  0  0  0  0
   11.3177   -3.6183   20.4231 N   0  0  0  0  0  0  0  0  0  0  0  0
   10.3338   -2.5549   24.1663 C   0  0  0  0  0  0  0  0  0  0  0  0
    0.9919  -11.3028   18.4533 C   0  0  0  0  0  0  0  0  0  0  0  0
   10.8373   -2.4970   22.7362 C   0  0  0  0  0  0  0  0  0  0  0  0
   10.9241   -4.4348   19.9671 C   0  0  0  0  0  0  0  0  0  0  0  0
    0.3821  -10.5271   16.8523 C   0  0  0  0  0  0  0  0  0  0  0  0
    9.7897   -4.5445   16.4670 C   0  0  0  0  0  0  0  0  0  0  0  0
    2.9891   -9.7848   17.5111 C   0  0  0  0  0  0  0  0  0  0  0  0
    2.9526   -9.6195   17.3091 C   0  0  0  0  0  0  0  0  0  0  0  0
    5.7892   -7.8401   15.7300 C   0  0  0  0  0  0  0  0  0  0  0  0
    4.1745   -8.7492   17.1786 C   0  0  0  0  0  0  0  0  0  0  0  0
    9.0779   -7.5457   17.8767 C   0  0  0  0  0  0  0  0  0  0  0  0
   10.2753   -5.5378   18.8014 C   0  0  0  0  0  0  0  0  0  0  0  0
  1 12  4  0
  2 23  4  0
  6 17  4  0
  7 10  4  0
  7 24  4  0
  9 34  4  0
 11 13  4  0
 11 32  1  0
 13 19  4  0
 14 20  4  0
 14 28  4  0
 16 27  4  0
 23 25  4  0
 30 32  1  0
M  END
$$$$

 Created by Python create_sdf_string function

 34 76  0  0  0  0  0  0  0  0999 V2000
   10.9509   -3.9543   26.5178 F   0  0  0  0  0  0  0  0  0  0  0  0
   10.3542   -2.7498   25.6532 C   0  0  0  0  0  0  0  0  0  0  0  0
    1.4001  -11.2986   17.5357 C   0  0  0  0  0  0  0  0  0  0  0  0
    8.9086   -7.6718   16.0075 F   0  0  0  0  0  0  0  0  0  0  0  0
    0.9381  -11.1046   18.2965 C   0  0  0  0  0  0  0  0  0  0  0  0
   11.4868   -4.3294   21.2754 C   0  0  0  0  0  0  0  0  0  0  0  0
   10.1845   -5.7395   18.5816 F   0  0  0  0  0  0  0  0  0  0  0  0
    1.8491  -11.0380   18.5107 C   0  0  0  0  0  0  0  0  0  0  0  0
    5.2172   -8.8923   16.6191 C   0  0  0  0  0  0  0  0  0  0  0  0
   11.0672   -4.2930   22.3488 Cl  0  0  0  0  0  0  0  0  0  0  0  0
   10.4513   -3.8331   17.3729 C   0  0  0  0  0  0  0  0  0  0  0  0
   -0.6629  -11.3366   17.9042 Br  0  0  0  0  0  0  0  0  0  0  0  0
    8.8088   -6.8218   15.5205 Cl  0  0  0  0  0  0  0  0  0  0  0  0
    8.2615   -7.1804   17.7897 C   0  0  0  0  0  0  0  0  0  0  0  0
   10.0711   -4.8276   18.2201 C   0  0  0  0  0  0  0  0  0  0  0  0
    8.6266   -7.6914   16.0561 C   0  0  0  0  0  0  0  0  0  0  0  0
   12.1232   -1.8816   20.2918 C   0  0  0  0  0  0  0  0  0  0  0  0
    1.3769  -11.0885   18.7215 C   0  0  0  0  0  0  0  0  0  0  0  0
    9.5537   -2.9448   22.1864 O   0  0  0  0  0  0  0  0  0  0  0  0
   10.9549   -4.4486   20.3212 C   0  0  0  0  0  0  0  0  0  0  0  0
    0.5506  -10.8346   17.0293 C   0  0  0  0  0  0  0  0  0  0  0  0
    8.5138   -3.9469   16.4553 C   0  0  0  0  0  0  0  0  0  0  0  0
    2.9249   -9.8371   17.5090 S   0  0  0  0  0  0  0  0  0  0  0  0
    6.2062   -7.9173   16.1975 O   0  0  0  0  0  0  0  0  0  0  0  0
   10.8988   -5.2396   18.8721 C   0  0  0  0  0  0  0  0  0  0  0  0
    9.6495   -5.2993   19.6627 He  0  0  0  0  0  0  0  0  0  0  0  0
   -1.8756  -10.8093   17.7112 He  0  0  0  0  0  0  0  0  0  0  0  0
    6.6333   -8.3761   16.4059 He  0  0  0  0  0  0  0  0  0  0  0  0
    9.6210   -6.0789   17.4848 He  0  0  0  0  0  0  0  0  0  0  0  0
   12.4138   -5.2662   23.1754 He  0  0  0  0  0  0  0  0  0  0  0  0
   10.6712   -2.7292   24.3577 He  0  0  0  0  0  0  0  0  0  0  0  0
    2.5243  -11.3128   18.4056 He  0  0  0  0  0  0  0  0  0  0  0  0
    4.4443   -9.7385   15.7094 He  0  0  0  0  0  0  0  0  0  0  0  0
    8.5172   -7.3527   16.6068 He  0  0  0  0  0  0  0  0  0  0  0  0
  1  5  2  0
  1  6  4  0
  1  7  3  0
  1 10  4  0
  1 12  2  0
  1 14  1  0
  1 16  1  0
  1 24  4  0
  2  3  4  0
  2  8  4  0
  2 19  4  0
  2 24  3  0
  3  6  1  0
  3  8  4  0
  3 14  1  0
  3 16  1  0
  3 19  4  0
  3 23  1  0
  4  7  3  0
  4 13  2  0
  4 15  3  0
  4 17  2  0
  4 21  3  0
  4 24  4  0
  4 25  1  0
  5 18  4  0
  6  9  4  0
  6 13  3  0
  6 17  1  0
  7  8  2  0
  7 10  3  0
  7 14  2  0
  7 18  2  0
  7 25  4  0
  8 12  3  0
  8 13  2  0
  8 18  1  0
  8 19  1  0
  8 20  4  0
  8 21  2  0
  8 24  4  0
  9 12  2  0
  9 22  3  0
  9 24  4  0
 10 11  3  0
 10 13  4  0
 10 23  3  0
 10 25  1  0
 11 12  1  0
 11 17  3  0
 12 14  2  0
 12 15  2  0
 12 20  3  0
 12 21  1  0
 12 23  1  0
 13 16  1  0
 13 18  4  0
 13 20  1  0
 13 21  2  0
 14 17  2  0
 14 18  4  0
 14 19  3  0
 14 21  4  0
 14 23  3  0
 15 17  1  0
 15 19  1  0
 16 19  2  0
 16 21  3  0
 17 18  2  0
 17 23  2  0
 19 24  3  0
 20 21  1  0
 20 24  2  0
 21 25  4  0
 23 24  2  0
 24 25  1  0
M  END
$$$$

 Created by Python create_sdf_string function

 34 23  0  0  0  0  0  0  0  0999 V2000
   11.0416   -3.8641   25.5876 C   0  0  0  0  0  0  0  0  0  0  0  0
   10.4256   -2.9606   25.3291 C   0  0  0  0  0  0  0  0  0  0  0  0
   10.4301   -5.0979   19.5045 C   0  0  0  0  0  0  0  0  0  0  0  0
   -1.6111  -11.4330   17.7673 C   0  0  0  0  0  0  0  0  0  0  0  0
    1.4725  -10.3201   17.2650 C   0  0  0  0  0  0  0  0  0  0  0  0
    8.1039   -7.6562   16.2109 C   0  0  0  0  0  0  0  0  0  0  0  0
    0.2791  -11.4137   18.7310 C   0  0  0  0  0  0  0  0  0  0  0  0
   11.2636   -3.9615   21.6077 C   0  0  0  0  0  0  0  0  0  0  0  0
   10.1636   -6.1711   18.9175 N   0  0  0  0  0  0  0  0  0  0  0  0
    2.1454  -10.6673   18.1309 C   0  0  0  0  0  0  0  0  0  0  0  0
    5.0533   -8.8931   16.6839 C   0  0  0  0  0  0  0  0  0  0  0  0
   11.2376   -4.1165   22.9439 C   0  0  0  0  0  0  0  0  0  0  0  0
    6.5378   -8.4333   16.5657 C   0  0  0  0  0  0  0  0  0  0  0  0
   10.2784   -3.8596   17.2997 C   0  0  0  0  0  0  0  0  0  0  0  0
    9.4554   -5.3556   17.1693 C   0  0  0  0  0  0  0  0  0  0  0  0
   -0.6955  -11.2645   17.6564 C   0  0  0  0  0  0  0  0  0  0  0  0
    8.5074   -6.5418   15.9580 C   0  0  0  0  0  0  0  0  0  0  0  0
   11.4740   -4.4992   23.5871 C   0  0  0  0  0  0  0  0  0  0  0  0
    7.9813   -7.2754   17.5984 C   0  0  0  0  0  0  0  0  0  0  0  0
   10.3732   -4.2308   18.0154 C   0  0  0  0  0  0  0  0  0  0  0  0
    8.3247   -7.9305   15.6482 C   0  0  0  0  0  0  0  0  0  0  0  0
   11.4106   -3.0401   20.7978 C   0  0  0  0  0  0  0  0  0  0  0  0
   10.2565   -2.6208   24.3958 C   0  0  0  0  0  0  0  0  0  0  0  0
    1.3483  -11.4376   19.2332 C   0  0  0  0  0  0  0  0  0  0  0  0
   10.4266   -2.8515   22.8529 C   0  0  0  0  0  0  0  0  0  0  0  0
   11.1445   -4.7171   20.7719 C   0  0  0  0  0  0  0  0  0  0  0  0
    0.3072  -10.5893   16.9970 C   0  0  0  0  0  0  0  0  0  0  0  0
    9.2205   -4.1915   16.0853 C   0  0  0  0  0  0  0  0  0  0  0  0
    3.1531   -9.5949   17.0689 C   0  0  0  0  0  0  0  0  0  0  0  0
    2.7263  -11.0192   18.6150 C   0  0  0  0  0  0  0  0  0  0  0  0
    6.1046   -8.4709   16.5086 C   0  0  0  0  0  0  0  0  0  0  0  0
    4.2647   -9.2628   16.5725 C   0  0  0  0  0  0  0  0  0  0  0  0
    7.9863   -7.3564   16.8482 C   0  0  0  0  0  0  0  0  0  0  0  0
   10.6599   -5.1122   19.1797 C   0  0  0  0  0  0  0  0  0  0  0  0
  1  2  4  0
  2 23  4  0
  3  9  4  0
  4 16  1  0
  5 10  4  0
  5 27  4  0
  7 16  4  0
  7 24  4  0
  8 22  1  0
  9 34  4  0
 10 30  4  0
 11 31  4  0
 11 32  1  0
 12 18  4  0
 13 31  4  0
 14 15  4  0
 14 20  4  0
 16 27  4  0
 19 33  4  0
 20 34  4  0
 23 25  4  0
 24 30  4  0
 29 32  1  0
M  END
$$$$

 Created by Python create_sdf_string function

 34 69  0  0  0  0  0  0  0  0999 V2000
   10.6364   -2.7562   25.0151 C   0  0  0  0  0  0  0  0  0  0  0  0
   -1.1010  -13.2802   17.3600 C   0  0  0  0  0  0  0  0  0  0  0  0
    2.6801   -9.6340   16.9057 N   0  0  0  0  0  0  0  0  0  0  0  0
   11.5740   -3.6978   21.3988 C   0  0  0  0  0  0  0  0  0  0  0  0
   10.3224   -6.3672   19.1442 N   0  0  0  0  0  0  0  0  0  0  0  0
    2.1704  -10.1683   19.2325 F   0  0  0  0  0  0  0  0  0  0  0  0
    5.2652   -8.9388   16.8368 C   0  0  0  0  0  0  0  0  0  0  0  0
    6.3885   -8.5417   16.6189 C   0  0  0  0  0  0  0  0  0  0  0  0
   10.0713   -4.1576   16.8408 O   0  0  0  0  0  0  0  0  0  0  0  0
   -0.4784  -11.5662   17.8214 C   0  0  0  0  0  0  0  0  0  0  0  0
    9.1537   -6.3253   16.5531 O   0  0  0  0  0  0  0  0  0  0  0  0
   12.4299   -5.1985   23.4304 O   0  0  0  0  0  0  0  0  0  0  0  0
   10.3526   -3.9507   18.5587 C   0  0  0  0  0  0  0  0  0  0  0  0
    8.9493   -8.1114   15.5098 S   0  0  0  0  0  0  0  0  0  0  0  0
   10.3814   -3.0518   24.2716 C   0  0  0  0  0  0  0  0  0  0  0  0
    1.7344  -11.4555   18.8571 C   0  0  0  0  0  0  0  0  0  0  0  0
   10.9152   -4.5955   20.4191 C   0  0  0  0  0  0  0  0  0  0  0  0
    0.0872  -10.9041   17.2285 C   0  0  0  0  0  0  0  0  0  0  0  0
    9.8867   -4.2351   17.2297 C   0  0  0  0  0  0  0  0  0  0  0  0
    2.6888   -9.4268   17.2348 F   0  0  0  0  0  0  0  0  0  0  0  0
    4.2951   -8.6910   18.4720 I   0  0  0  0  0  0  0  0  0  0  0  0
    7.5190   -7.8126   16.1289 N   0  0  0  0  0  0  0  0  0  0  0  0
   10.5764   -5.3513   18.7595 C   0  0  0  0  0  0  0  0  0  0  0  0
    9.9611   -4.4986   25.9509 He  0  0  0  0  0  0  0  0  0  0  0  0
    9.9743   -5.4919   19.8674 He  0  0  0  0  0  0  0  0  0  0  0  0
    8.7239   -8.2149   15.3631 He  0  0  0  0  0  0  0  0  0  0  0  0
    0.2970  -11.6064   18.8160 He  0  0  0  0  0  0  0  0  0  0  0  0
   11.3403   -4.4245   24.1444 He  0  0  0  0  0  0  0  0  0  0  0  0
    9.3547   -4.4397   17.3376 He  0  0  0  0  0  0  0  0  0  0  0  0
    7.9789   -5.7829   16.0379 He  0  0  0  0  0  0  0  0  0  0  0  0
    9.8857   -2.0417   20.4999 He  0  0  0  0  0  0  0  0  0  0  0  0
    8.9378   -3.4279   21.9252 He  0  0  0  0  0  0  0  0  0  0  0  0
    1.8504   -9.6642   17.6947 He  0  0  0  0  0  0  0  0  0  0  0  0
    7.6409   -8.4481   17.3645 He  0  0  0  0  0  0  0  0  0  0  0  0
  1  2  3  0
  1  8  1  0
  1 15  4  0
  1 22  4  0
  2  6  3  0
  2  7  1  0
  2 12  4  0
  2 15  1  0
  2 20  1  0
  2 21  2  0
  3  5  1  0
  3  8  1  0
  3 10  4  0
  3 13  1  0
  3 16  2  0
  3 18  3  0
  4  6  2  0
  4  8  2  0
  4 12  4  0
  4 18  3  0
  4 19  3  0
  5 10  2  0
  5 16  3  0
  5 21  2  0
  5 23  4  0
  6 11  2  0
  6 15  3  0
  6 16  1  0
  6 19  1  0
  6 20  1  0
  7  8  4  0
  7 15  1  0
  7 20  2  0
  8 10  3  0
  8 11  1  0
  8 12  3  0
  8 13  2  0
  8 15  3  0
  8 16  4  0
  8 18  1  0
  8 20  2  0
  8 22  2  0
  9 13  3  0
  9 15  3  0
 10 14  1  0
 10 16  4  0
 10 20  2  0
 10 21  1  0
 11 12  2  0
 11 13  1  0
 11 18  1  0
 11 20  1  0
 11 21  3  0
 12 16  4  0
 12 23  1  0
 13 16  4  0
 13 20  1  0
 13 22  4  0
 13 23  4  0
 14 17  1  0
 15 16  4  0
 15 19  1  0
 16 19  2  0
 16 20  4  0
 17 19  4  0
 18 20  2  0
 18 22  2  0
 20 21  3  0
 22 23  2  0
M  END
$$$$

 Created by Python create_sdf_string function

 34 28  0  0  0  0  0  0  0  0999 V2000
   10.7734   -4.0328   25.7091 C   0  0  0  0  0  0  0  0  0  0  0  0
   10.2296   -3.0439   24.9985 C   0  0  0  0  0  0  0  0  0  0  0  0
   10.5845   -5.7208   19.8077 C   0  0  0  0  0  0  0  0  0  0  0  0
   -0.9971  -12.6010   17.8932 C   0  0  0  0  0  0  0  0  0  0  0  0
    2.5969   -9.2561   16.7771 N   0  0  0  0  0  0  0  0  0  0  0  0
    8.1694   -8.1180   15.6290 C   0  0  0  0  0  0  0  0  0  0  0  0
    0.9043  -11.7984   19.0836 C   0  0  0  0  0  0  0  0  0  0  0  0
   11.2124   -4.2350   21.9716 C   0  0  0  0  0  0  0  0  0  0  0  0
   10.1511   -6.3719   18.9731 N   0  0  0  0  0  0  0  0  0  0  0  0
    2.3303  -10.8805   18.5557 C   0  0  0  0  0  0  0  0  0  0  0  0
    5.0384   -8.7034   17.0880 C   0  0  0  0  0  0  0  0  0  0  0  0
   11.3457   -4.6826   24.2542 C   0  0  0  0  0  0  0  0  0  0  0  0
    6.2895   -8.3601   16.9571 C   0  0  0  0  0  0  0  0  0  0  0  0
    9.8918   -4.0938   16.5120 C   0  0  0  0  0  0  0  0  0  0  0  0
    9.7493   -4.6613   17.0629 C   0  0  0  0  0  0  0  0  0  0  0  0
   -0.0374  -11.5838   17.5908 C   0  0  0  0  0  0  0  0  0  0  0  0
    8.6545   -6.6447   16.7727 C   0  0  0  0  0  0  0  0  0  0  0  0
   11.6002   -4.8626   23.4646 C   0  0  0  0  0  0  0  0  0  0  0  0
    8.2073   -6.3250   16.1610 C   0  0  0  0  0  0  0  0  0  0  0  0
   10.6142   -3.7746   18.6764 C   0  0  0  0  0  0  0  0  0  0  0  0
    8.3189   -8.0459   15.6219 C   0  0  0  0  0  0  0  0  0  0  0  0
   10.8368   -3.2383   20.7283 N   0  0  0  0  0  0  0  0  0  0  0  0
   10.2584   -2.7541   23.7948 C   0  0  0  0  0  0  0  0  0  0  0  0
    1.2252  -11.5012   18.9474 C   0  0  0  0  0  0  0  0  0  0  0  0
   10.4913   -3.2496   22.4521 C   0  0  0  0  0  0  0  0  0  0  0  0
   11.0850   -4.5954   20.6853 C   0  0  0  0  0  0  0  0  0  0  0  0
    0.4804  -10.8374   17.1083 C   0  0  0  0  0  0  0  0  0  0  0  0
   10.0491   -4.1918   17.1706 C   0  0  0  0  0  0  0  0  0  0  0  0
    3.0708   -9.4256   17.1946 C   0  0  0  0  0  0  0  0  0  0  0  0
    2.1611  -10.0556   17.5345 C   0  0  0  0  0  0  0  0  0  0  0  0
    7.1172   -8.1761   17.4137 C   0  0  0  0  0  0  0  0  0  0  0  0
    4.4612   -9.2153   17.5456 C   0  0  0  0  0  0  0  0  0  0  0  0
    7.1202   -7.6694   15.9304 C   0  0  0  0  0  0  0  0  0  0  0  0
   10.3247   -5.2069   18.7728 C   0  0  0  0  0  0  0  0  0  0  0  0
  1  2  4  0
  1 12  4  0
  2 23  4  0
  3  9  4  0
  4 16  1  0
  5 29  4  0
  5 30  4  0
  6 21  4  0
  6 33  4  0
  7 10  4  0
  7 24  4  0
  8 18  4  0
  8 26  4  0
  9 34  4  0
 10 30  4  0
 11 13  1  0
 11 32  4  0
 12 18  4  0
 13 31  4  0
 14 15  4  0
 14 28  4  0
 15 28  4  0
 16 27  4  0
 17 19  4  0
 19 21  4  0
 20 34  4  0
 23 25  4  0
 29 32  4  0
M  END
$$$$

 Created by Python create_sdf_string function

 34104  0  0  0  0  0  0  0  0999 V2000
   10.4790   -3.4355   24.8648 C   0  0  0  0  0  0  0  0  0  0  0  0
    2.9769   -7.3913   16.9999 N   0  0  0  0  0  0  0  0  0  0  0  0
    1.1917  -11.9697   19.0753 C   0  0  0  0  0  0  0  0  0  0  0  0
   11.6233   -4.1498   21.8888 C   0  0  0  0  0  0  0  0  0  0  0  0
    9.8323   -6.4494   18.7437 N   0  0  0  0  0  0  0  0  0  0  0  0
    1.4076  -10.2538   17.6446 C   0  0  0  0  0  0  0  0  0  0  0  0
    5.4062   -8.8455   16.8549 O   0  0  0  0  0  0  0  0  0  0  0  0
    6.0050   -6.8980   16.8756 C   0  0  0  0  0  0  0  0  0  0  0  0
   10.1671   -4.3359   17.0772 O   0  0  0  0  0  0  0  0  0  0  0  0
    9.8946   -5.0019   17.1851 C   0  0  0  0  0  0  0  0  0  0  0  0
    8.5596   -6.7606   16.4575 C   0  0  0  0  0  0  0  0  0  0  0  0
   10.6567   -4.2273   22.3491 C   0  0  0  0  0  0  0  0  0  0  0  0
    7.2424   -7.2057   15.6248 C   0  0  0  0  0  0  0  0  0  0  0  0
   10.1961   -3.9405   18.7252 O   0  0  0  0  0  0  0  0  0  0  0  0
    8.6797   -7.7275   15.5945 C   0  0  0  0  0  0  0  0  0  0  0  0
   11.3270   -4.0958   21.5955 N   0  0  0  0  0  0  0  0  0  0  0  0
   10.2524   -2.8814   24.0343 C   0  0  0  0  0  0  0  0  0  0  0  0
    1.0997  -11.4284   19.2388 C   0  0  0  0  0  0  0  0  0  0  0  0
   11.1569   -4.4289   20.3764 N   0  0  0  0  0  0  0  0  0  0  0  0
    0.4281  -10.7621   17.3618 C   0  0  0  0  0  0  0  0  0  0  0  0
   10.0922   -4.2178   16.1493 C   0  0  0  0  0  0  0  0  0  0  0  0
    3.1545   -9.7127   17.1469 C   0  0  0  0  0  0  0  0  0  0  0  0
    7.1150   -6.8601   17.5980 C   0  0  0  0  0  0  0  0  0  0  0  0
    5.5440   -9.0492   17.1374 C   0  0  0  0  0  0  0  0  0  0  0  0
    6.4850   -6.4421   15.4760 C   0  0  0  0  0  0  0  0  0  0  0  0
   10.3221   -4.9824   18.2545 C   0  0  0  0  0  0  0  0  0  0  0  0
    9.6277   -4.3078   26.2199 He  0  0  0  0  0  0  0  0  0  0  0  0
   10.7591   -6.6789   19.3968 He  0  0  0  0  0  0  0  0  0  0  0  0
   -0.0891  -11.2006   18.7436 He  0  0  0  0  0  0  0  0  0  0  0  0
    8.6788   -7.4266   14.5618 He  0  0  0  0  0  0  0  0  0  0  0  0
    9.1799   -2.4911   24.3098 He  0  0  0  0  0  0  0  0  0  0  0  0
   -0.2898  -10.7372   17.0133 He  0  0  0  0  0  0  0  0  0  0  0  0
   10.5982   -2.2308   22.0495 He  0  0  0  0  0  0  0  0  0  0  0  0
    2.7778   -9.6332   17.1905 He  0  0  0  0  0  0  0  0  0  0  0  0
  1  5  4  0
  1  6  2  0
  1 11  4  0
  1 12  4  0
  1 13  4  0
  1 17  4  0
  1 21  3  0
  1 24  1  0
  2  3  2  0
  2  7  4  0
  2  8  3  0
  2  9  1  0
  2 11  2  0
  2 12  1  0
  2 14  4  0
  2 18  1  0
  2 23  2  0
  2 26  3  0
  3  4  1  0
  3  6  3  0
  3 18  4  0
  3 19  2  0
  3 23  4  0
  4  6  2  0
  4  8  4  0
  4  9  2  0
  4 11  2  0
  4 12  4  0
  4 19  4  0
  4 21  3  0
  4 25  2  0
  5  6  2  0
  5  7  4  0
  5 10  1  0
  5 21  3  0
  5 26  4  0
  6  7  1  0
  6  9  1  0
  6 10  4  0
  6 14  3  0
  6 15  4  0
  6 16  4  0
  6 26  4  0
  7 13  3  0
  8  9  3  0
  8 17  3  0
  8 18  1  0
  8 22  3  0
  8 23  3  0
  9 13  2  0
  9 14  4  0
  9 16  2  0
  9 19  3  0
  9 25  4  0
 10 11  4  0
 10 13  4  0
 10 16  4  0
 10 18  4  0
 10 19  3  0
 10 20  3  0
 10 21  2  0
 10 22  3  0
 10 23  1  0
 11 12  2  0
 11 14  3  0
 11 23  2  0
 12 15  4  0
 12 16  4  0
 12 18  2  0
 12 19  1  0
 12 20  1  0
 12 21  1  0
 12 22  1  0
 12 23  2  0
 12 26  1  0
 13 16  4  0
 13 17  1  0
 13 23  1  0
 13 25  3  0
 14 18  2  0
 14 21  2  0
 14 25  3  0
 14 26  4  0
 15 16  1  0
 15 18  1  0
 15 22  2  0
 15 23  3  0
 15 24  3  0
 15 25  3  0
 16 17  2  0
 16 19  4  0
 16 26  4  0
 18 24  4  0
 19 20  3  0
 19 21  2  0
 20 24  2  0
 20 25  1  0
 21 23  3  0
 21 25  3  0
 21 26  2  0
 22 23  1  0
 23 25  3  0
 24 25  3  0
 25 26  4  0
M  END
$$$$

 Created by Python create_sdf_string function

 34 27  0  0  0  0  0  0  0  0999 V2000
    9.8777   -3.4886   25.8940 O   0  0  0  0  0  0  0  0  0  0  0  0
   10.6150   -3.8941   24.7944 C   0  0  0  0  0  0  0  0  0  0  0  0
   10.4308   -6.3390   19.5397 C   0  0  0  0  0  0  0  0  0  0  0  0
   -0.0478  -11.6876   18.5500 C   0  0  0  0  0  0  0  0  0  0  0  0
    3.3469   -8.1556   16.6127 N   0  0  0  0  0  0  0  0  0  0  0  0
    8.5843   -7.5038   15.2900 C   0  0  0  0  0  0  0  0  0  0  0  0
    1.0725  -11.5970   19.3519 C   0  0  0  0  0  0  0  0  0  0  0  0
   11.0843   -4.0066   22.0611 C   0  0  0  0  0  0  0  0  0  0  0  0
   10.0440   -6.1969   18.7850 N   0  0  0  0  0  0  0  0  0  0  0  0
    1.7607  -10.3777   17.7961 C   0  0  0  0  0  0  0  0  0  0  0  0
    5.0898   -8.6872   16.9578 O   0  0  0  0  0  0  0  0  0  0  0  0
    9.7212   -2.2236   24.2673 C   0  0  0  0  0  0  0  0  0  0  0  0
    5.9426   -7.4773   16.7542 C   0  0  0  0  0  0  0  0  0  0  0  0
   10.1575   -3.9688   16.9436 C   0  0  0  0  0  0  0  0  0  0  0  0
    9.6769   -5.2069   17.0746 C   0  0  0  0  0  0  0  0  0  0  0  0
    0.2330  -10.6392   17.1204 C   0  0  0  0  0  0  0  0  0  0  0  0
    8.6952   -6.5028   16.5793 C   0  0  0  0  0  0  0  0  0  0  0  0
   10.9841   -4.2071   22.9330 C   0  0  0  0  0  0  0  0  0  0  0  0
    7.2081   -7.5281   15.8633 C   0  0  0  0  0  0  0  0  0  0  0  0
   10.6080   -3.8024   18.5267 N   0  0  0  0  0  0  0  0  0  0  0  0
    8.6990   -7.8199   15.6262 C   0  0  0  0  0  0  0  0  0  0  0  0
   10.8802   -4.0991   21.4398 C   0  0  0  0  0  0  0  0  0  0  0  0
   10.0462   -2.6518   24.1940 C   0  0  0  0  0  0  0  0  0  0  0  0
    1.7488  -11.2499   18.9690 C   0  0  0  0  0  0  0  0  0  0  0  0
   10.6141   -2.4541   22.7238 C   0  0  0  0  0  0  0  0  0  0  0  0
   11.0895   -4.6063   20.6493 C   0  0  0  0  0  0  0  0  0  0  0  0
    0.2864  -10.7239   17.2911 C   0  0  0  0  0  0  0  0  0  0  0  0
    9.9456   -4.1676   16.4839 C   0  0  0  0  0  0  0  0  0  0  0  0
    3.4469   -9.4520   17.1673 C   0  0  0  0  0  0  0  0  0  0  0  0
    2.9247   -9.4969   17.1620 C   0  0  0  0  0  0  0  0  0  0  0  0
    7.1984   -7.0827   17.3100 C   0  0  0  0  0  0  0  0  0  0  0  0
    4.9609   -8.9055   17.1842 C   0  0  0  0  0  0  0  0  0  0  0  0
    6.7044   -7.0201   15.8157 C   0  0  0  0  0  0  0  0  0  0  0  0
   10.4072   -4.8846   18.8148 C   0  0  0  0  0  0  0  0  0  0  0  0
  2 18  4  0
  2 23  4  0
  3  9  4  0
  4  7  4  0
  4 27  4  0
  6 17  4  0
  6 21  4  0
  7 24  4  0
  8 18  4  0
  8 25  4  0
  8 26  4  0
  9 34  4  0
 10 24  4  0
 10 30  1  0
 11 32  4  0
 12 23  4  0
 12 25  4  0
 13 31  4  0
 13 33  4  0
 14 20  4  0
 14 28  4  0
 15 17  4  0
 15 28  4  0
 16 27  4  0
 20 34  4  0
 22 26  4  0
 29 30  1  0
M  END
$$$$

 Created by Python create_sdf_string function

 34 65  0  0  0  0  0  0  0  0999 V2000
   10.7730   -3.8621   24.6547 O   0  0  0  0  0  0  0  0  0  0  0  0
    0.4056  -11.3269   18.8546 F   0  0  0  0  0  0  0  0  0  0  0  0
    9.0619   -8.7054   16.5322 C   0  0  0  0  0  0  0  0  0  0  0  0
    1.0508  -11.2301   19.6595 C   0  0  0  0  0  0  0  0  0  0  0  0
   11.0027   -3.7873   22.5060 C   0  0  0  0  0  0  0  0  0  0  0  0
    9.6254   -6.5384   18.8157 N   0  0  0  0  0  0  0  0  0  0  0  0
    1.3994   -9.5771   17.4791 C   0  0  0  0  0  0  0  0  0  0  0  0
    5.2263   -8.3206   16.8650 O   0  0  0  0  0  0  0  0  0  0  0  0
    9.3814   -2.2849   24.1307 P   0  0  0  0  0  0  0  0  0  0  0  0
   10.2053   -3.7399   16.8719 C   0  0  0  0  0  0  0  0  0  0  0  0
    9.2836   -4.9356   18.0946 S   0  0  0  0  0  0  0  0  0  0  0  0
   -0.0844  -10.8819   16.7905 Cl  0  0  0  0  0  0  0  0  0  0  0  0
    8.4199   -6.0845   16.6275 F   0  0  0  0  0  0  0  0  0  0  0  0
   10.5671   -4.1706   24.5039 Se  0  0  0  0  0  0  0  0  0  0  0  0
   10.3528   -3.1125   18.3202 N   0  0  0  0  0  0  0  0  0  0  0  0
    8.4851   -8.2139   15.5242 C   0  0  0  0  0  0  0  0  0  0  0  0
   10.8268   -4.0324   20.8395 C   0  0  0  0  0  0  0  0  0  0  0  0
   10.4867   -2.8188   23.6989 C   0  0  0  0  0  0  0  0  0  0  0  0
    1.7856  -11.2509   19.3490 C   0  0  0  0  0  0  0  0  0  0  0  0
    8.9437   -2.4228   24.0553 Cl  0  0  0  0  0  0  0  0  0  0  0  0
    3.9867   -8.9576   17.3736 C   0  0  0  0  0  0  0  0  0  0  0  0
    7.6317   -5.5429   16.6178 C   0  0  0  0  0  0  0  0  0  0  0  0
   10.2173   -4.3717   25.4547 He  0  0  0  0  0  0  0  0  0  0  0  0
   10.1692   -7.5568   18.1095 He  0  0  0  0  0  0  0  0  0  0  0  0
    2.8284   -7.6504   16.1896 He  0  0  0  0  0  0  0  0  0  0  0  0
    4.6270   -7.7470   16.2983 He  0  0  0  0  0  0  0  0  0  0  0  0
    7.8293   -7.8667   15.6901 He  0  0  0  0  0  0  0  0  0  0  0  0
   10.9929   -5.2244   20.7463 He  0  0  0  0  0  0  0  0  0  0  0  0
    0.3328  -10.3557   17.3595 He  0  0  0  0  0  0  0  0  0  0  0  0
   10.1261   -4.1187   16.2417 He  0  0  0  0  0  0  0  0  0  0  0  0
    2.4789   -9.0306   15.9181 He  0  0  0  0  0  0  0  0  0  0  0  0
    3.9029   -8.1393   17.6203 He  0  0  0  0  0  0  0  0  0  0  0  0
    6.6310   -6.8115   15.1706 He  0  0  0  0  0  0  0  0  0  0  0  0
   10.7389   -5.3440   18.9586 He  0  0  0  0  0  0  0  0  0  0  0  0
  1  2  3  0
  1  7  4  0
  1 10  4  0
  1 14  1  0
  1 18  4  0
  1 22  4  0
  2  3  1  0
  2  4  4  0
  2  6  2  0
  2  9  1  0
  2 10  4  0
  2 12  3  0
  2 19  3  0
  2 22  3  0
  3  6  2  0
  3 10  2  0
  3 13  4  0
  3 16  2  0
  3 21  3  0
  4  6  2  0
  4  9  4  0
  4 19  4  0
  4 20  4  0
  5  8  2  0
  5 12  3  0
  5 17  2  0
  5 18  2  0
  5 20  4  0
  5 21  2  0
  6 11  1  0
  6 17  1  0
  7 10  3  0
  7 11  2  0
  7 14  2  0
  7 18  3  0
  7 20  4  0
  7 22  3  0
  8 12  2  0
  8 22  3  0
  9 16  2  0
  9 18  4  0
  9 19  3  0
  9 20  4  0
 10 12  3  0
 10 14  1  0
 10 15  4  0
 10 17  1  0
 11 22  3  0
 12 22  4  0
 13 14  2  0
 13 18  4  0
 14 15  4  0
 14 16  1  0
 14 18  4  0
 14 19  3  0
 14 22  2  0
 15 17  1  0
 15 20  2  0
 15 22  3  0
 17 19  1  0
 17 20  2  0
 18 22  2  0
 19 20  4  0
 20 21  1  0
 21 22  2  0
M  END
$$$$

 Created by Python create_sdf_string function

 34 29  0  0  0  0  0  0  0  0999 V2000
   10.1170   -3.6162   25.6985 C   0  0  0  0  0  0  0  0  0  0  0  0
   10.8176   -4.1272   24.8455 C   0  0  0  0  0  0  0  0  0  0  0  0
    9.5784   -7.1979   18.3173 C   0  0  0  0  0  0  0  0  0  0  0  0
    0.2356  -11.4846   18.7310 C   0  0  0  0  0  0  0  0  0  0  0  0
    3.2351   -8.1513   16.0937 C   0  0  0  0  0  0  0  0  0  0  0  0
    8.6480   -8.2296   16.6764 C   0  0  0  0  0  0  0  0  0  0  0  0
    1.2111  -11.4129   19.4248 C   0  0  0  0  0  0  0  0  0  0  0  0
   10.9328   -3.7991   22.0924 C   0  0  0  0  0  0  0  0  0  0  0  0
   10.0278   -6.0439   18.9121 N   0  0  0  0  0  0  0  0  0  0  0  0
    1.9088  -10.0621   17.6447 C   0  0  0  0  0  0  0  0  0  0  0  0
    5.2941   -8.4276   17.1460 C   0  0  0  0  0  0  0  0  0  0  0  0
    9.7746   -2.2310   24.0067 C   0  0  0  0  0  0  0  0  0  0  0  0
    4.5548   -7.8015   16.1347 C   0  0  0  0  0  0  0  0  0  0  0  0
   10.3267   -3.7339   17.1765 C   0  0  0  0  0  0  0  0  0  0  0  0
    9.7009   -5.3497   17.6469 C   0  0  0  0  0  0  0  0  0  0  0  0
    0.0055  -10.9952   17.6211 C   0  0  0  0  0  0  0  0  0  0  0  0
    8.6720   -6.4773   16.8387 C   0  0  0  0  0  0  0  0  0  0  0  0
   10.9140   -4.1349   24.3034 C   0  0  0  0  0  0  0  0  0  0  0  0
    7.3038   -7.9274   16.2271 C   0  0  0  0  0  0  0  0  0  0  0  0
   10.6777   -3.5247   18.4575 N   0  0  0  0  0  0  0  0  0  0  0  0
    8.3234   -8.4003   15.5546 C   0  0  0  0  0  0  0  0  0  0  0  0
   10.6744   -4.1984   20.7539 C   0  0  0  0  0  0  0  0  0  0  0  0
   10.3975   -3.0679   23.3284 C   0  0  0  0  0  0  0  0  0  0  0  0
    2.0936  -10.8821   18.8617 C   0  0  0  0  0  0  0  0  0  0  0  0
    9.5519   -2.4478   24.9881 C   0  0  0  0  0  0  0  0  0  0  0  0
   10.8867   -4.5434   20.9898 C   0  0  0  0  0  0  0  0  0  0  0  0
    0.7686  -10.2766   17.2035 C   0  0  0  0  0  0  0  0  0  0  0  0
    9.7963   -4.0990   16.5403 N   0  0  0  0  0  0  0  0  0  0  0  0
    3.5555   -9.1170   17.2302 C   0  0  0  0  0  0  0  0  0  0  0  0
    2.3940   -8.9117   16.3061 C   0  0  0  0  0  0  0  0  0  0  0  0
    7.8575   -6.0307   16.1814 C   0  0  0  0  0  0  0  0  0  0  0  0
    4.5098   -8.8407   17.4187 C   0  0  0  0  0  0  0  0  0  0  0  0
    6.6773   -7.0697   15.7089 C   0  0  0  0  0  0  0  0  0  0  0  0
   10.3944   -4.6630   19.1967 C   0  0  0  0  0  0  0  0  0  0  0  0
  1  2  4  0
  1 25  4  0
  2 18  4  0
  3  9  4  0
  4  7  4  0
  4 16  4  0
  5 13  4  0
  5 30  4  0
  6 21  4  0
  7 24  4  0
  8 23  1  0
  9 15  4  0
  9 34  4  0
 10 24  4  0
 10 27  4  0
 10 29  1  0
 11 32  4  0
 12 23  4  0
 12 25  4  0
 14 20  4  0
 14 28  4  0
 15 17  1  0
 15 28  4  0
 16 27  4  0
 17 31  4  0
 20 34  4  0
 22 26  1  0
 29 32  4  0
 31 33  4  0
M  END
$$$$

 Created by Python create_sdf_string function

 34101  0  0  0  0  0  0  0  0999 V2000
   11.2038   -4.0403   24.9283 C   0  0  0  0  0  0  0  0  0  0  0  0
   10.7630   -6.1874   17.5033 I   0  0  0  0  0  0  0  0  0  0  0  0
   -1.4067  -10.9872   19.0875 C   0  0  0  0  0  0  0  0  0  0  0  0
    5.1941   -7.5694   14.4088 P   0  0  0  0  0  0  0  0  0  0  0  0
    9.2469   -8.7852   15.6791 C   0  0  0  0  0  0  0  0  0  0  0  0
    1.2262  -10.9789   19.5088 C   0  0  0  0  0  0  0  0  0  0  0  0
   11.4501   -3.6838   22.0176 C   0  0  0  0  0  0  0  0  0  0  0  0
   10.2570   -6.1566   18.4515 N   0  0  0  0  0  0  0  0  0  0  0  0
    0.8872   -9.7900   16.6500 C   0  0  0  0  0  0  0  0  0  0  0  0
   10.3642   -1.4112   25.9423 C   0  0  0  0  0  0  0  0  0  0  0  0
    4.0545   -6.9151   15.6171 C   0  0  0  0  0  0  0  0  0  0  0  0
   10.3029   -3.6377   17.4561 C   0  0  0  0  0  0  0  0  0  0  0  0
    7.6456   -7.3552   17.5293 N   0  0  0  0  0  0  0  0  0  0  0  0
    7.7685   -7.1316   16.5640 S   0  0  0  0  0  0  0  0  0  0  0  0
   10.5926   -3.6715   18.5901 N   0  0  0  0  0  0  0  0  0  0  0  0
    8.0612   -8.3698   15.0040 C   0  0  0  0  0  0  0  0  0  0  0  0
   11.9455   -4.0089   21.0435 N   0  0  0  0  0  0  0  0  0  0  0  0
   10.2464   -2.6963   23.2495 C   0  0  0  0  0  0  0  0  0  0  0  0
    2.3104  -10.8068   18.7467 C   0  0  0  0  0  0  0  0  0  0  0  0
    9.5811   -1.8690   24.5661 Cl  0  0  0  0  0  0  0  0  0  0  0  0
   10.5148   -4.1990   20.4296 C   0  0  0  0  0  0  0  0  0  0  0  0
    0.6260  -10.3347   17.1443 C   0  0  0  0  0  0  0  0  0  0  0  0
    9.2293   -4.6840   15.8981 C   0  0  0  0  0  0  0  0  0  0  0  0
    3.3185   -8.6598   17.4721 C   0  0  0  0  0  0  0  0  0  0  0  0
    4.0671   -8.8910   16.6898 N   0  0  0  0  0  0  0  0  0  0  0  0
   10.7406   -4.6498   19.0769 C   0  0  0  0  0  0  0  0  0  0  0  0
    9.0047   -2.3346   25.8289 He  0  0  0  0  0  0  0  0  0  0  0  0
    5.3237   -9.0715   16.8630 He  0  0  0  0  0  0  0  0  0  0  0  0
    9.8172   -3.8564   17.1775 He  0  0  0  0  0  0  0  0  0  0  0  0
   -0.3110  -10.3208   17.7182 He  0  0  0  0  0  0  0  0  0  0  0  0
   11.5460   -4.8795   23.4976 He  0  0  0  0  0  0  0  0  0  0  0  0
    1.6446  -10.3702   15.0667 He  0  0  0  0  0  0  0  0  0  0  0  0
    8.7636   -5.8292   16.0240 He  0  0  0  0  0  0  0  0  0  0  0  0
    7.6954   -6.4812   16.9051 He  0  0  0  0  0  0  0  0  0  0  0  0
  1  3  2  0
  1 13  4  0
  1 21  2  0
  2  4  3  0
  2  5  4  0
  2  6  4  0
  2  9  1  0
  2 12  2  0
  2 13  2  0
  2 15  4  0
  2 18  4  0
  2 19  1  0
  2 23  1  0
  3  6  4  0
  3  9  2  0
  3 12  4  0
  3 13  2  0
  3 14  1  0
  3 17  3  0
  3 21  1  0
  3 23  3  0
  3 24  3  0
  4  5  2  0
  4  9  4  0
  4 15  2  0
  4 17  2  0
  4 19  4  0
  4 23  4  0
  4 25  3  0
  4 26  4  0
  5  6  1  0
  5  7  1  0
  5 12  4  0
  5 14  1  0
  5 16  4  0
  5 17  2  0
  5 21  2  0
  5 22  3  0
  5 24  2  0
  6  9  2  0
  6 13  1  0
  6 14  4  0
  6 17  3  0
  6 19  4  0
  6 20  3  0
  6 24  1  0
  6 26  4  0
  7 11  3  0
  7 18  1  0
  7 20  1  0
  7 26  3  0
  8 14  3  0
  8 22  3  0
  8 25  2  0
  8 26  4  0
  9 10  2  0
  9 14  4  0
  9 16  2  0
  9 17  1  0
  9 18  3  0
  9 19  2  0
  9 22  4  0
  9 24  4  0
  9 26  1  0
 10 18  3  0
 10 20  1  0
 10 21  2  0
 10 23  2  0
 10 26  3  0
 11 16  1  0
 11 23  4  0
 11 24  2  0
 11 25  2  0
 12 17  4  0
 12 19  1  0
 12 25  3  0
 13 14  3  0
 13 18  3  0
 13 19  3  0
 13 24  1  0
 13 26  3  0
 14 16  1  0
 14 22  3  0
 14 23  1  0
 14 24  4  0
 15 20  2  0
 15 26  4  0
 16 25  1  0
 17 18  3  0
 17 21  4  0
 17 24  1  0
 17 26  1  0
 18 20  2  0
 19 20  4  0
 19 23  2  0
 20 23  1  0
 21 24  1  0
 21 25  2  0
 22 25  4  0
 23 24  4  0
 24 25  4  0
M  END
$$$$

 Created by Python create_sdf_string function

 34 29  0  0  0  0  0  0  0  0999 V2000
    9.5910   -2.5331   25.6936 C   0  0  0  0  0  0  0  0  0  0  0  0
   10.9033   -3.9834   24.9497 C   0  0  0  0  0  0  0  0  0  0  0  0
    9.6165   -5.8881   17.9797 C   0  0  0  0  0  0  0  0  0  0  0  0
   -0.2379  -11.2339   19.0264 C   0  0  0  0  0  0  0  0  0  0  0  0
    5.5560   -8.1365   15.4579 C   0  0  0  0  0  0  0  0  0  0  0  0
    8.4141   -8.0779   16.1319 C   0  0  0  0  0  0  0  0  0  0  0  0
    1.1288  -11.2468   19.3729 C   0  0  0  0  0  0  0  0  0  0  0  0
   10.9084   -3.4402   22.6732 C   0  0  0  0  0  0  0  0  0  0  0  0
   10.1847   -5.8718   19.0618 C   0  0  0  0  0  0  0  0  0  0  0  0
    1.5204  -10.0652   17.3992 C   0  0  0  0  0  0  0  0  0  0  0  0
    5.5613   -8.3693   16.9314 C   0  0  0  0  0  0  0  0  0  0  0  0
    9.8328   -1.8915   25.3649 C   0  0  0  0  0  0  0  0  0  0  0  0
    3.8411   -7.9525   16.0623 C   0  0  0  0  0  0  0  0  0  0  0  0
   10.4881   -3.8403   17.1858 C   0  0  0  0  0  0  0  0  0  0  0  0
   10.2903   -3.9184   17.0499 C   0  0  0  0  0  0  0  0  0  0  0  0
   -0.3998  -10.7558   17.8602 C   0  0  0  0  0  0  0  0  0  0  0  0
    6.9538   -7.5166   17.4090 C   0  0  0  0  0  0  0  0  0  0  0  0
   11.2459   -4.2866   23.5448 C   0  0  0  0  0  0  0  0  0  0  0  0
    7.4755   -7.6292   16.3362 C   0  0  0  0  0  0  0  0  0  0  0  0
   10.9288   -3.7050   18.5990 N   0  0  0  0  0  0  0  0  0  0  0  0
    7.3679   -8.3190   15.3773 C   0  0  0  0  0  0  0  0  0  0  0  0
   11.2116   -3.9178   21.0958 N   0  0  0  0  0  0  0  0  0  0  0  0
   10.3490   -2.3715   23.1031 C   0  0  0  0  0  0  0  0  0  0  0  0
    2.0642  -10.8141   18.6516 C   0  0  0  0  0  0  0  0  0  0  0  0
    9.9523   -2.0261   24.4431 C   0  0  0  0  0  0  0  0  0  0  0  0
   10.8760   -4.4071   20.8193 C   0  0  0  0  0  0  0  0  0  0  0  0
    0.4481  -10.2219   17.1001 C   0  0  0  0  0  0  0  0  0  0  0  0
    9.1054   -4.6934   16.1837 C   0  0  0  0  0  0  0  0  0  0  0  0
    3.1810   -9.1003   16.7486 C   0  0  0  0  0  0  0  0  0  0  0  0
    1.9068   -9.1974   15.8562 C   0  0  0  0  0  0  0  0  0  0  0  0
    8.7446   -5.3848   16.1477 N   0  0  0  0  0  0  0  0  0  0  0  0
    3.8152   -8.7520   16.6191 N   0  0  0  0  0  0  0  0  0  0  0  0
    8.1230   -6.8725   17.1673 C   0  0  0  0  0  0  0  0  0  0  0  0
   10.7001   -4.6014   19.4279 C   0  0  0  0  0  0  0  0  0  0  0  0
  1 12  1  0
  2 18  4  0
  3  9  4  0
  4  7  4  0
  4 16  4  0
  5 11  1  0
  6 19  1  0
  6 21  1  0
  7 24  4  0
  8 18  4  0
  8 23  4  0
  9 34  4  0
 10 24  4  0
 10 27  4  0
 11 17  1  0
 11 32  1  0
 12 25  1  0
 13 32  1  0
 14 15  4  0
 14 20  4  0
 15 28  4  0
 16 27  4  0
 19 21  1  0
 20 34  4  0
 22 26  1  0
 23 25  4  0
 26 34  1  0
 28 31  4  0
 29 32  1  0
M  END
$$$$

 Created by Python create_sdf_string function

 34119  0  0  0  0  0  0  0  0999 V2000
    9.8305   -1.8940   26.1254 C   0  0  0  0  0  0  0  0  0  0  0  0
   11.1704   -3.9554   24.5072 C   0  0  0  0  0  0  0  0  0  0  0  0
    9.2472   -5.4338   18.3717 I   0  0  0  0  0  0  0  0  0  0  0  0
    4.3140   -7.7423   16.0306 C   0  0  0  0  0  0  0  0  0  0  0  0
    8.8829   -7.4130   15.7037 C   0  0  0  0  0  0  0  0  0  0  0  0
   10.7495   -3.5870   22.4857 C   0  0  0  0  0  0  0  0  0  0  0  0
   10.1534   -5.6435   19.1336 C   0  0  0  0  0  0  0  0  0  0  0  0
    5.4376   -8.0880   17.2051 C   0  0  0  0  0  0  0  0  0  0  0  0
    2.6009   -8.5893   15.2794 C   0  0  0  0  0  0  0  0  0  0  0  0
   10.4176   -4.1367   17.0951 C   0  0  0  0  0  0  0  0  0  0  0  0
    9.5685   -4.7787   15.6366 C   0  0  0  0  0  0  0  0  0  0  0  0
    7.0468   -7.1378   17.3411 C   0  0  0  0  0  0  0  0  0  0  0  0
    9.9388   -2.9778   23.1146 C   0  0  0  0  0  0  0  0  0  0  0  0
    6.2746   -7.0535   15.0498 C   0  0  0  0  0  0  0  0  0  0  0  0
   11.1965   -3.6730   18.7991 N   0  0  0  0  0  0  0  0  0  0  0  0
    7.1327   -8.5182   15.3973 F   0  0  0  0  0  0  0  0  0  0  0  0
   10.5205   -2.5350   23.5054 C   0  0  0  0  0  0  0  0  0  0  0  0
    2.0779  -10.3481   19.0363 C   0  0  0  0  0  0  0  0  0  0  0  0
    9.4535   -1.9875   23.4975 C   0  0  0  0  0  0  0  0  0  0  0  0
   10.5198   -4.0867   20.6249 C   0  0  0  0  0  0  0  0  0  0  0  0
    0.4839  -10.2433   16.9593 P   0  0  0  0  0  0  0  0  0  0  0  0
    9.9222   -3.5676   14.9102 Br  0  0  0  0  0  0  0  0  0  0  0  0
    3.2390   -8.8346   16.8031 O   0  0  0  0  0  0  0  0  0  0  0  0
    1.6315   -8.6338   16.3684 N   0  0  0  0  0  0  0  0  0  0  0  0
    2.5078   -7.9853   16.7757 N   0  0  0  0  0  0  0  0  0  0  0  0
    6.2155   -7.1293   17.9520 B   0  0  0  0  0  0  0  0  0  0  0  0
   10.5649   -4.2549   19.3112 Cl  0  0  0  0  0  0  0  0  0  0  0  0
    0.2500  -12.5894   18.3471 He  0  0  0  0  0  0  0  0  0  0  0  0
    1.3002  -11.1684   19.9059 He  0  0  0  0  0  0  0  0  0  0  0  0
    1.6753   -9.6294   16.3076 He  0  0  0  0  0  0  0  0  0  0  0  0
    9.2337   -2.3006   26.2354 He  0  0  0  0  0  0  0  0  0  0  0  0
   -0.0970   -9.2770   18.1309 He  0  0  0  0  0  0  0  0  0  0  0  0
   10.9483   -3.5645   22.7454 He  0  0  0  0  0  0  0  0  0  0  0  0
    9.0962   -5.0232   14.9629 He  0  0  0  0  0  0  0  0  0  0  0  0
  1  2  1  0
  1  4  4  0
  1 10  2  0
  1 13  4  0
  1 15  3  0
  1 19  3  0
  2  9  4  0
  2 10  2  0
  2 11  2  0
  2 12  4  0
  2 13  4  0
  2 14  4  0
  2 19  2  0
  3  6  3  0
  3  7  4  0
  3  9  2  0
  3 13  3  0
  3 15  2  0
  3 19  1  0
  3 22  2  0
  3 23  4  0
  3 25  3  0
  3 26  3  0
  4  5  2  0
  4  6  4  0
  4  8  1  0
  4 10  1  0
  4 15  3  0
  4 18  3  0
  4 24  2  0
  4 25  2  0
  4 26  3  0
  4 27  3  0
  5 10  3  0
  5 12  3  0
  5 13  2  0
  5 14  3  0
  5 16  3  0
  5 17  1  0
  5 18  1  0
  5 22  3  0
  5 23  3  0
  5 25  4  0
  6  9  3  0
  6 10  4  0
  6 12  3  0
  6 13  1  0
  6 17  4  0
  6 25  2  0
  7  8  1  0
  7  9  3  0
  7 11  2  0
  7 13  4  0
  7 14  1  0
  7 22  3  0
  7 27  4  0
  8 12  1  0
  8 22  2  0
  8 25  1  0
  9 11  2  0
  9 17  4  0
  9 18  2  0
  9 21  2  0
 10 12  3  0
 10 15  4  0
 10 23  1  0
 10 24  2  0
 10 26  1  0
 10 27  4  0
 11 12  3  0
 11 15  2  0
 11 17  2  0
 11 19  2  0
 11 21  2  0
 11 22  4  0
 11 24  2  0
 11 26  2  0
 11 27  1  0
 12 14  3  0
 12 21  1  0
 12 22  1  0
 12 27  1  0
 13 14  4  0
 13 17  1  0
 13 23  1  0
 13 24  2  0
 13 26  2  0
 14 16  1  0
 14 17  2  0
 14 19  4  0
 14 24  3  0
 14 27  1  0
 15 17  4  0
 15 20  4  0
 15 23  3  0
 15 25  2  0
 15 26  2  0
 15 27  4  0
 16 21  4  0
 16 22  3  0
 16 25  4  0
 17 19  4  0
 18 19  3  0
 18 23  3  0
 18 26  1  0
 19 20  4  0
 19 21  2  0
 19 24  4  0
 20 21  3  0
 20 25  2  0
 21 22  3  0
 21 27  3  0
 22 24  1  0
 22 26  2  0
 22 27  4  0
 23 24  3  0
 23 25  1  0
 24 26  4  0
 26 27  3  0
M  END
$$$$

 Created by Python create_sdf_string function

 34 28  0  0  0  0  0  0  0  0999 V2000
    9.8215   -2.5569   25.6237 C   0  0  0  0  0  0  0  0  0  0  0  0
   10.6691   -3.7674   24.7070 C   0  0  0  0  0  0  0  0  0  0  0  0
    9.4668   -5.7448   17.7359 C   0  0  0  0  0  0  0  0  0  0  0  0
    0.3037  -11.6469   18.7470 C   0  0  0  0  0  0  0  0  0  0  0  0
    5.0278   -7.9812   16.1867 C   0  0  0  0  0  0  0  0  0  0  0  0
    8.2632   -6.7474   16.2314 C   0  0  0  0  0  0  0  0  0  0  0  0
    1.2047  -11.3545   19.2030 C   0  0  0  0  0  0  0  0  0  0  0  0
   10.6550   -3.4317   22.5147 C   0  0  0  0  0  0  0  0  0  0  0  0
    9.9337   -5.5374   19.0510 C   0  0  0  0  0  0  0  0  0  0  0  0
    1.2357   -9.7155   16.9819 C   0  0  0  0  0  0  0  0  0  0  0  0
    5.6279   -7.9673   17.1450 C   0  0  0  0  0  0  0  0  0  0  0  0
    9.5512   -2.3253   26.0426 C   0  0  0  0  0  0  0  0  0  0  0  0
    2.5768   -8.5483   15.7237 C   0  0  0  0  0  0  0  0  0  0  0  0
   10.6530   -3.7026   17.4205 C   0  0  0  0  0  0  0  0  0  0  0  0
    9.7391   -4.7963   16.7374 C   0  0  0  0  0  0  0  0  0  0  0  0
    0.4457  -10.2061   17.5359 C   0  0  0  0  0  0  0  0  0  0  0  0
    7.1294   -7.3078   17.2402 C   0  0  0  0  0  0  0  0  0  0  0  0
   10.5879   -3.4055   23.5560 C   0  0  0  0  0  0  0  0  0  0  0  0
    6.4261   -7.3372   15.1769 C   0  0  0  0  0  0  0  0  0  0  0  0
   10.8815   -3.5947   18.5730 N   0  0  0  0  0  0  0  0  0  0  0  0
    7.4419   -7.8646   15.4952 C   0  0  0  0  0  0  0  0  0  0  0  0
   11.0280   -4.1328   21.7734 O   0  0  0  0  0  0  0  0  0  0  0  0
   10.1775   -2.2288   23.2537 C   0  0  0  0  0  0  0  0  0  0  0  0
    2.1363  -10.8373   18.5978 C   0  0  0  0  0  0  0  0  0  0  0  0
    9.6802   -1.6141   24.0733 C   0  0  0  0  0  0  0  0  0  0  0  0
   10.9367   -4.2471   20.5889 C   0  0  0  0  0  0  0  0  0  0  0  0
    0.2033  -10.4726   17.4273 C   0  0  0  0  0  0  0  0  0  0  0  0
    9.9122   -4.0765   15.8979 N   0  0  0  0  0  0  0  0  0  0  0  0
    3.2633   -8.7685   16.8484 C   0  0  0  0  0  0  0  0  0  0  0  0
    1.6107   -9.0278   16.5661 N   0  0  0  0  0  0  0  0  0  0  0  0
    8.7946   -5.5545   15.6940 O   0  0  0  0  0  0  0  0  0  0  0  0
    3.5040   -8.4803   16.6832 N   0  0  0  0  0  0  0  0  0  0  0  0
    6.4473   -7.4468   17.6627 C   0  0  0  0  0  0  0  0  0  0  0  0
   10.5151   -4.4874   19.4101 C   0  0  0  0  0  0  0  0  0  0  0  0
  1  2  4  0
  1 12  1  0
  2 18  4  0
  3  9  4  0
  3 15  4  0
  4  7  4  0
  5 11  1  0
  5 19  1  0
  6 17  1  0
  6 21  1  0
  7 24  4  0
  8 18  1  0
  8 23  4  0
  9 34  4  0
 10 16  4  0
 11 17  1  0
 11 33  1  0
 14 15  4  0
 14 20  4  0
 15 28  4  0
 16 27  4  0
 17 33  1  0
 19 21  1  0
 20 34  4  0
 22 26  1  0
 23 25  4  0
 26 34  1  0
 29 32  1  0
M  END
$$$$

 Created by Python create_sdf_string function

 34 73  0  0  0  0  0  0  0  0999 V2000
   10.5742   -3.5916   26.9499 C   0  0  0  0  0  0  0  0  0  0  0  0
   10.5784   -3.7263   24.6117 O   0  0  0  0  0  0  0  0  0  0  0  0
   -2.1099  -11.3492   18.2184 P   0  0  0  0  0  0  0  0  0  0  0  0
    5.4650   -6.8234   16.2987 S   0  0  0  0  0  0  0  0  0  0  0  0
    9.6738   -5.8714   16.3236 P   0  0  0  0  0  0  0  0  0  0  0  0
    1.4642  -11.2399   19.4303 C   0  0  0  0  0  0  0  0  0  0  0  0
   10.6605   -3.4123   21.9953 C   0  0  0  0  0  0  0  0  0  0  0  0
    9.7831   -5.6025   18.9804 C   0  0  0  0  0  0  0  0  0  0  0  0
    1.0831   -8.7142   17.6770 O   0  0  0  0  0  0  0  0  0  0  0  0
   11.3624   -2.2382   26.9331 C   0  0  0  0  0  0  0  0  0  0  0  0
    2.2987   -7.9746   14.9031 C   0  0  0  0  0  0  0  0  0  0  0  0
   10.5053   -3.5635   17.4257 C   0  0  0  0  0  0  0  0  0  0  0  0
   10.3041   -4.8651   16.7141 N   0  0  0  0  0  0  0  0  0  0  0  0
    0.5480   -9.1600   18.6331 P   0  0  0  0  0  0  0  0  0  0  0  0
    6.8487   -8.0426   17.6908 C   0  0  0  0  0  0  0  0  0  0  0  0
    6.3472   -5.5143   15.0885 N   0  0  0  0  0  0  0  0  0  0  0  0
   10.7918   -3.7424   19.0358 N   0  0  0  0  0  0  0  0  0  0  0  0
    7.7390   -7.9802   15.7820 C   0  0  0  0  0  0  0  0  0  0  0  0
    1.5704  -11.1633   18.6156 C   0  0  0  0  0  0  0  0  0  0  0  0
   10.8259   -4.3046   20.6805 C   0  0  0  0  0  0  0  0  0  0  0  0
   -0.0996  -10.7149   17.0099 C   0  0  0  0  0  0  0  0  0  0  0  0
    9.6875   -4.9538   16.2531 O   0  0  0  0  0  0  0  0  0  0  0  0
    3.4896   -8.4684   17.3011 C   0  0  0  0  0  0  0  0  0  0  0  0
    8.9450   -4.8364   15.8378 O   0  0  0  0  0  0  0  0  0  0  0  0
    9.7060   -4.7349   17.0331 He  0  0  0  0  0  0  0  0  0  0  0  0
    5.6769   -8.4379   17.3260 He  0  0  0  0  0  0  0  0  0  0  0  0
    9.6226   -3.2145   23.9277 He  0  0  0  0  0  0  0  0  0  0  0  0
   10.7395   -2.2597   20.9191 He  0  0  0  0  0  0  0  0  0  0  0  0
    9.8922   -2.1102   23.4890 He  0  0  0  0  0  0  0  0  0  0  0  0
    7.6404    0.1667   24.4769 He  0  0  0  0  0  0  0  0  0  0  0  0
    0.5423   -8.3208   17.8379 He  0  0  0  0  0  0  0  0  0  0  0  0
    2.4804   -8.8302   17.6147 He  0  0  0  0  0  0  0  0  0  0  0  0
    6.8041   -8.7072   17.1724 He  0  0  0  0  0  0  0  0  0  0  0  0
   10.1730   -4.4306   19.6021 He  0  0  0  0  0  0  0  0  0  0  0  0
  1  2  4  0
  1  5  2  0
  1 12  4  0
  1 14  3  0
  1 16  3  0
  1 17  3  0
  1 18  4  0
  1 20  4  0
  1 23  2  0
  1 24  4  0
  2  3  1  0
  2  9  1  0
  2 16  2  0
  2 24  2  0
  3  8  1  0
  3 15  4  0
  3 23  2  0
  3 24  1  0
  4 10  2  0
  4 14  4  0
  4 19  4  0
  4 20  2  0
  4 21  4  0
  4 22  2  0
  4 24  3  0
  5  6  3  0
  5  7  4  0
  5 10  3  0
  5 11  2  0
  5 12  2  0
  5 13  2  0
  5 14  2  0
  5 15  4  0
  5 16  3  0
  5 17  3  0
  5 23  1  0
  6  7  2  0
  6 16  2  0
  6 19  4  0
  6 21  2  0
  6 22  4  0
  7  9  2  0
  8  9  1  0
  8 11  2  0
  8 22  3  0
  9 12  4  0
  9 13  2  0
  9 16  4  0
  9 18  4  0
  9 21  2  0
  9 22  3  0
  9 23  4  0
  9 24  4  0
 10 11  4  0
 10 17  1  0
 10 18  1  0
 10 21  4  0
 11 14  4  0
 11 18  4  0
 12 15  4  0
 12 17  4  0
 13 17  3  0
 14 15  1  0
 14 18  2  0
 14 19  2  0
 14 21  1  0
 14 23  3  0
 15 19  1  0
 15 20  1  0
 15 22  4  0
 16 17  2  0
 16 21  3  0
 17 24  1  0
M  END
$$$$

 Created by Python create_sdf_string function

 34 31  0  0  0  0  0  0  0  0999 V2000
   10.4441   -3.1834   25.9854 C   0  0  0  0  0  0  0  0  0  0  0  0
   10.6369   -3.7854   24.8692 C   0  0  0  0  0  0  0  0  0  0  0  0
    9.6213   -5.4197   17.6062 C   0  0  0  0  0  0  0  0  0  0  0  0
   -1.3053  -11.2762   18.1226 C   0  0  0  0  0  0  0  0  0  0  0  0
    5.4786   -7.4099   16.1087 C   0  0  0  0  0  0  0  0  0  0  0  0
    8.8111   -6.2968   16.6757 C   0  0  0  0  0  0  0  0  0  0  0  0
    0.9240  -11.3201   18.9124 C   0  0  0  0  0  0  0  0  0  0  0  0
   10.4433   -3.2902   22.7324 C   0  0  0  0  0  0  0  0  0  0  0  0
    9.8514   -5.5399   18.9902 C   0  0  0  0  0  0  0  0  0  0  0  0
    0.9325   -9.0721   16.9428 C   0  0  0  0  0  0  0  0  0  0  0  0
    5.5209   -8.1524   17.0433 C   0  0  0  0  0  0  0  0  0  0  0  0
   10.0616   -2.0958   26.1393 C   0  0  0  0  0  0  0  0  0  0  0  0
    2.8641   -8.3066   16.2222 C   0  0  0  0  0  0  0  0  0  0  0  0
   10.8290   -3.4992   17.5179 C   0  0  0  0  0  0  0  0  0  0  0  0
   10.0943   -4.5314   17.1057 C   0  0  0  0  0  0  0  0  0  0  0  0
    0.7404   -9.8800   17.5226 C   0  0  0  0  0  0  0  0  0  0  0  0
    7.1375   -7.9217   17.4091 C   0  0  0  0  0  0  0  0  0  0  0  0
   10.2687   -2.8082   23.9400 C   0  0  0  0  0  0  0  0  0  0  0  0
    6.8002   -6.5492   15.5589 C   0  0  0  0  0  0  0  0  0  0  0  0
   10.9118   -3.3869   18.9161 N   0  0  0  0  0  0  0  0  0  0  0  0
    7.8488   -7.6427   15.7626 C   0  0  0  0  0  0  0  0  0  0  0  0
   10.8422   -3.3212   21.5814 N   0  0  0  0  0  0  0  0  0  0  0  0
    9.8430   -1.8262   23.7676 C   0  0  0  0  0  0  0  0  0  0  0  0
    1.5876  -10.9032   18.5860 C   0  0  0  0  0  0  0  0  0  0  0  0
    9.5249   -1.2430   25.0743 C   0  0  0  0  0  0  0  0  0  0  0  0
   10.5803   -4.3709   21.0102 C   0  0  0  0  0  0  0  0  0  0  0  0
   -0.3820  -10.5576   17.8858 C   0  0  0  0  0  0  0  0  0  0  0  0
    9.2024   -4.8390   15.9352 O   0  0  0  0  0  0  0  0  0  0  0  0
    3.6553   -8.3525   16.7632 C   0  0  0  0  0  0  0  0  0  0  0  0
    0.8282   -9.2139   17.0886 C   0  0  0  0  0  0  0  0  0  0  0  0
    8.4041   -5.3873   15.7593 C   0  0  0  0  0  0  0  0  0  0  0  0
    2.8364   -9.1067   17.0643 C   0  0  0  0  0  0  0  0  0  0  0  0
    6.6539   -8.1778   17.4024 C   0  0  0  0  0  0  0  0  0  0  0  0
   10.4382   -4.4242   19.6604 C   0  0  0  0  0  0  0  0  0  0  0  0
  1  2  4  0
  1 12  4  0
  2 18  4  0
  3  6  1  0
  3  9  4  0
  3 15  4  0
  4 27  4  0
  5 11  1  0
  5 19  1  0
  6 21  1  0
  6 31  1  0
  7 24  4  0
  8 18  1  0
  8 22  1  0
  9 34  4  0
 10 30  4  0
 11 33  1  0
 12 25  4  0
 13 29  1  0
 13 32  1  0
 14 15  4  0
 14 20  4  0
 16 30  4  0
 17 33  1  0
 18 23  4  0
 19 21  1  0
 20 34  4  0
 22 26  1  0
 23 25  4  0
 26 34  1  0
 28 31  2  0
M  END
$$$$

 Created by Python create_sdf_string function

 34 74  0  0  0  0  0  0  0  0999 V2000
   12.0459   -3.9464   27.0876 C   0  0  0  0  0  0  0  0  0  0  0  0
   10.5441   -3.5508   25.2343 C   0  0  0  0  0  0  0  0  0  0  0  0
    8.8100   -4.9240   18.8243 C   0  0  0  0  0  0  0  0  0  0  0  0
   -1.4516  -12.5776   17.4544 F   0  0  0  0  0  0  0  0  0  0  0  0
    4.8963   -8.2493   15.1777 C   0  0  0  0  0  0  0  0  0  0  0  0
    8.7314   -6.8861   16.6675 C   0  0  0  0  0  0  0  0  0  0  0  0
    1.4465  -11.3563   18.9342 C   0  0  0  0  0  0  0  0  0  0  0  0
   10.4388   -3.6625   23.0059 C   0  0  0  0  0  0  0  0  0  0  0  0
    9.5142   -5.7454   19.4428 C   0  0  0  0  0  0  0  0  0  0  0  0
    2.8007   -8.7442   16.9762 Cl  0  0  0  0  0  0  0  0  0  0  0  0
    5.4405   -8.3083   17.0398 C   0  0  0  0  0  0  0  0  0  0  0  0
   11.4036   -3.0338   25.6416 C   0  0  0  0  0  0  0  0  0  0  0  0
    4.1880   -8.3140   15.6477 N   0  0  0  0  0  0  0  0  0  0  0  0
   10.7458   -3.3970   17.7291 C   0  0  0  0  0  0  0  0  0  0  0  0
   10.3299   -2.0182   24.2043 O   0  0  0  0  0  0  0  0  0  0  0  0
   10.9222   -3.8161   18.9947 O   0  0  0  0  0  0  0  0  0  0  0  0
    8.0291   -7.9066   15.4424 F   0  0  0  0  0  0  0  0  0  0  0  0
   11.4473   -2.0922   23.4124 S   0  0  0  0  0  0  0  0  0  0  0  0
    9.6569   -2.2294   23.9195 C   0  0  0  0  0  0  0  0  0  0  0  0
    1.4687  -10.8011   18.3376 C   0  0  0  0  0  0  0  0  0  0  0  0
   10.7915   -4.3444   21.2357 C   0  0  0  0  0  0  0  0  0  0  0  0
   -0.4396  -10.7104   17.5919 C   0  0  0  0  0  0  0  0  0  0  0  0
    3.6083   -8.3828   16.6040 C   0  0  0  0  0  0  0  0  0  0  0  0
    8.2521   -5.0232   15.5226 B   0  0  0  0  0  0  0  0  0  0  0  0
   10.3954   -4.5681   19.6573 O   0  0  0  0  0  0  0  0  0  0  0  0
   10.7615   -4.2415   17.1079 He  0  0  0  0  0  0  0  0  0  0  0  0
    1.2811  -10.0082   17.3085 He  0  0  0  0  0  0  0  0  0  0  0  0
    6.9160   -8.0322   17.8187 He  0  0  0  0  0  0  0  0  0  0  0  0
    6.0443   -7.9862   16.0370 He  0  0  0  0  0  0  0  0  0  0  0  0
    9.5271   -0.8012   26.3254 He  0  0  0  0  0  0  0  0  0  0  0  0
    9.2587   -4.8732   15.5517 He  0  0  0  0  0  0  0  0  0  0  0  0
    1.0430   -9.1314   16.0246 He  0  0  0  0  0  0  0  0  0  0  0  0
    2.4942   -8.4287   17.5613 He  0  0  0  0  0  0  0  0  0  0  0  0
    6.5464   -7.7505   18.5501 He  0  0  0  0  0  0  0  0  0  0  0  0
  1  3  1  0
  1  9  4  0
  1 10  2  0
  1 12  3  0
  1 15  2  0
  1 18  4  0
  1 22  2  0
  2  3  1  0
  2  5  1  0
  2  9  2  0
  2 18  2  0
  3  7  2  0
  3  9  1  0
  3 12  4  0
  3 15  3  0
  3 23  2  0
  3 25  3  0
  4 10  3  0
  4 11  4  0
  4 12  4  0
  4 16  3  0
  4 20  3  0
  4 22  2  0
  4 23  1  0
  5  9  4  0
  5 15  3  0
  6  7  4  0
  6  8  1  0
  6 11  1  0
  6 12  1  0
  6 17  4  0
  6 18  4  0
  6 19  3  0
  6 21  1  0
  6 24  2  0
  6 25  4  0
  7 13  4  0
  7 20  4  0
  8 10  3  0
  8 12  1  0
  8 13  1  0
  8 15  1  0
  8 18  1  0
  9 12  3  0
  9 15  1  0
  9 18  4  0
  9 25  4  0
 10 25  2  0
 11 13  3  0
 11 16  4  0
 11 22  4  0
 11 24  2  0
 12 13  1  0
 12 17  2  0
 12 21  3  0
 12 22  1  0
 13 14  4  0
 13 15  4  0
 13 17  1  0
 13 18  1  0
 13 20  4  0
 13 22  1  0
 13 24  4  0
 14 16  4  0
 15 17  1  0
 15 18  4  0
 15 24  4  0
 15 25  1  0
 16 20  2  0
 16 24  1  0
 16 25  4  0
 17 24  2  0
 20 24  3  0
 21 22  4  0
M  END
$$$$

 Created by Python create_sdf_string function

 34 31  0  0  0  0  0  0  0  0999 V2000
   11.5333   -3.4947   26.7617 C   0  0  0  0  0  0  0  0  0  0  0  0
   10.6759   -3.2109   25.5240 C   0  0  0  0  0  0  0  0  0  0  0  0
    9.6128   -5.4889   18.0777 C   0  0  0  0  0  0  0  0  0  0  0  0
   -0.8592  -11.9352   17.8046 C   0  0  0  0  0  0  0  0  0  0  0  0
    5.4580   -8.1995   15.4672 C   0  0  0  0  0  0  0  0  0  0  0  0
    8.4274   -6.5546   16.7259 C   0  0  0  0  0  0  0  0  0  0  0  0
    1.1598  -11.1529   18.6762 C   0  0  0  0  0  0  0  0  0  0  0  0
   10.7442   -3.4914   22.3575 C   0  0  0  0  0  0  0  0  0  0  0  0
    9.8946   -5.4383   19.3410 C   0  0  0  0  0  0  0  0  0  0  0  0
    2.4336   -9.2460   16.9516 C   0  0  0  0  0  0  0  0  0  0  0  0
    5.5108   -8.2260   17.3253 C   0  0  0  0  0  0  0  0  0  0  0  0
   11.0224   -3.2320   25.7544 C   0  0  0  0  0  0  0  0  0  0  0  0
    4.1794   -8.3672   15.9334 N   0  0  0  0  0  0  0  0  0  0  0  0
   10.7856   -3.5841   17.6285 C   0  0  0  0  0  0  0  0  0  0  0  0
   10.0060   -4.5979   17.2415 C   0  0  0  0  0  0  0  0  0  0  0  0
    0.8291  -10.1908   17.1420 C   0  0  0  0  0  0  0  0  0  0  0  0
    7.1939   -7.7604   17.4485 C   0  0  0  0  0  0  0  0  0  0  0  0
   10.2524   -2.3106   23.9287 C   0  0  0  0  0  0  0  0  0  0  0  0
    6.4424   -7.9453   15.5943 C   0  0  0  0  0  0  0  0  0  0  0  0
   10.9963   -3.4207   19.0320 C   0  0  0  0  0  0  0  0  0  0  0  0
    7.8199   -7.6494   15.5829 C   0  0  0  0  0  0  0  0  0  0  0  0
   10.7646   -2.9365   23.5070 C   0  0  0  0  0  0  0  0  0  0  0  0
    9.7658   -1.6318   24.4814 C   0  0  0  0  0  0  0  0  0  0  0  0
    1.2118  -11.0960   18.5140 C   0  0  0  0  0  0  0  0  0  0  0  0
    9.5460   -1.6157   25.8220 C   0  0  0  0  0  0  0  0  0  0  0  0
   10.8539   -4.2824   21.2531 C   0  0  0  0  0  0  0  0  0  0  0  0
   -0.2088  -11.0596   17.2533 C   0  0  0  0  0  0  0  0  0  0  0  0
    9.3436   -4.7331   15.9786 N   0  0  0  0  0  0  0  0  0  0  0  0
    3.3582   -8.6019   16.5474 C   0  0  0  0  0  0  0  0  0  0  0  0
    1.1114   -9.4348   16.3793 C   0  0  0  0  0  0  0  0  0  0  0  0
    8.5611   -5.7216   15.9239 C   0  0  0  0  0  0  0  0  0  0  0  0
    2.9039   -9.1742   17.1915 C   0  0  0  0  0  0  0  0  0  0  0  0
    6.6425   -7.8252   17.7520 C   0  0  0  0  0  0  0  0  0  0  0  0
   10.5516   -4.3966   19.8687 C   0  0  0  0  0  0  0  0  0  0  0  0
  1 12  1  0
  2 12  4  0
  3  9  4  0
  3 15  4  0
  4 27  4  0
  5 13  1  0
  5 19  1  0
  6 17  1  0
  6 21  1  0
  6 31  4  0
  7 24  4  0
  8 22  1  0
  8 26  1  0
  9 34  4  0
 10 29  1  0
 10 32  4  0
 11 33  1  0
 13 29  1  0
 14 15  4  0
 14 20  4  0
 15 28  4  0
 16 27  4  0
 16 30  4  0
 17 33  1  0
 18 22  4  0
 18 23  4  0
 19 21  1  0
 20 34  4  0
 23 25  4  0
 26 34  1  0
 28 31  4  0
M  END
$$$$

 Created by Python create_sdf_string function

 34 56  0  0  0  0  0  0  0  0999 V2000
   11.1052   -3.4044   25.9225 C   0  0  0  0  0  0  0  0  0  0  0  0
    7.9418   -9.2581   17.6923 C   0  0  0  0  0  0  0  0  0  0  0  0
    1.3163  -11.2141   18.6103 P   0  0  0  0  0  0  0  0  0  0  0  0
   10.2705   -3.9750   22.4775 C   0  0  0  0  0  0  0  0  0  0  0  0
    9.9800   -5.6937   19.2546 C   0  0  0  0  0  0  0  0  0  0  0  0
    3.2376   -8.8109   17.2269 C   0  0  0  0  0  0  0  0  0  0  0  0
    5.9961   -8.2988   17.2120 C   0  0  0  0  0  0  0  0  0  0  0  0
   11.0076   -3.5161   24.9972 C   0  0  0  0  0  0  0  0  0  0  0  0
    4.3558   -8.6829   15.0961 S   0  0  0  0  0  0  0  0  0  0  0  0
   10.9613   -3.6044   17.7009 C   0  0  0  0  0  0  0  0  0  0  0  0
    9.7547   -4.9192   18.6527 S   0  0  0  0  0  0  0  0  0  0  0  0
    9.1161   -2.7593   24.9963 C   0  0  0  0  0  0  0  0  0  0  0  0
    7.9748   -8.3913   15.7254 C   0  0  0  0  0  0  0  0  0  0  0  0
    9.4839   -1.1012   24.0245 C   0  0  0  0  0  0  0  0  0  0  0  0
    1.9185  -10.6893   18.1367 C   0  0  0  0  0  0  0  0  0  0  0  0
   10.4485   -4.3680   21.1562 C   0  0  0  0  0  0  0  0  0  0  0  0
   10.2407   -4.8999   15.6671 P   0  0  0  0  0  0  0  0  0  0  0  0
    3.3419   -8.9469   16.8776 C   0  0  0  0  0  0  0  0  0  0  0  0
    2.7223  -10.1099   17.1602 F   0  0  0  0  0  0  0  0  0  0  0  0
    5.7151   -6.9472   17.4323 C   0  0  0  0  0  0  0  0  0  0  0  0
   10.7298   -4.6090   20.1018 C   0  0  0  0  0  0  0  0  0  0  0  0
   12.5452   -3.3627   26.6009 He  0  0  0  0  0  0  0  0  0  0  0  0
    9.5975   -4.9372   18.1832 He  0  0  0  0  0  0  0  0  0  0  0  0
   -0.4707  -10.4101   17.0642 He  0  0  0  0  0  0  0  0  0  0  0  0
    5.3899   -7.8668   14.6879 He  0  0  0  0  0  0  0  0  0  0  0  0
    1.1572  -10.9790   15.2514 He  0  0  0  0  0  0  0  0  0  0  0  0
    6.6595   -8.1782   16.9623 He  0  0  0  0  0  0  0  0  0  0  0  0
    7.0661   -7.5390   16.6462 He  0  0  0  0  0  0  0  0  0  0  0  0
   10.8568   -3.0098   19.1867 He  0  0  0  0  0  0  0  0  0  0  0  0
   10.3864   -3.3062   22.0611 He  0  0  0  0  0  0  0  0  0  0  0  0
    9.7430   -1.6005   24.9182 He  0  0  0  0  0  0  0  0  0  0  0  0
   -0.0818  -11.4431   17.7877 He  0  0  0  0  0  0  0  0  0  0  0  0
    1.3831  -10.0192   15.7471 He  0  0  0  0  0  0  0  0  0  0  0  0
    9.7968   -6.5278   14.3624 He  0  0  0  0  0  0  0  0  0  0  0  0
  1  2  2  0
  1  3  1  0
  1  9  3  0
  1 12  2  0
  1 17  4  0
  1 19  3  0
  2  3  3  0
  2  4  2  0
  2 10  4  0
  2 14  2  0
  2 17  4  0
  2 18  4  0
  3 11  2  0
  3 12  4  0
  3 15  4  0
  3 20  4  0
  4  5  1  0
  4 11  2  0
  4 16  1  0
  4 17  4  0
  4 18  3  0
  4 20  2  0
  5 11  1  0
  5 18  2  0
  5 19  3  0
  6 18  3  0
  6 20  1  0
  7 10  1  0
  7 11  4  0
  7 20  1  0
  7 21  1  0
  8 18  3  0
  8 20  2  0
  9 11  2  0
  9 16  4  0
  9 17  1  0
  9 18  1  0
 10 11  2  0
 10 12  4  0
 10 17  4  0
 10 19  4  0
 10 20  2  0
 11 21  3  0
 12 14  4  0
 12 15  3  0
 12 18  1  0
 13 17  3  0
 13 20  4  0
 14 15  1  0
 16 20  1  0
 16 21  1  0
 17 18  2  0
 17 21  4  0
 18 20  1  0
 18 21  2  0
 19 21  1  0
M  END
$$$$

 Created by Python create_sdf_string function

 34 27  0  0  0  0  0  0  0  0999 V2000
   11.6689   -3.4884   26.2688 C   0  0  0  0  0  0  0  0  0  0  0  0
   10.9123   -3.1512   25.7929 C   0  0  0  0  0  0  0  0  0  0  0  0
    9.7018   -5.4700   18.0321 C   0  0  0  0  0  0  0  0  0  0  0  0
   -0.2140  -11.2072   17.3196 C   0  0  0  0  0  0  0  0  0  0  0  0
    5.4939   -8.0677   15.3175 C   0  0  0  0  0  0  0  0  0  0  0  0
    7.9044   -8.1334   17.5644 C   0  0  0  0  0  0  0  0  0  0  0  0
    1.2324  -11.0419   18.5659 C   0  0  0  0  0  0  0  0  0  0  0  0
   10.6145   -3.7801   22.3121 C   0  0  0  0  0  0  0  0  0  0  0  0
    9.9261   -5.4315   19.1960 C   0  0  0  0  0  0  0  0  0  0  0  0
    3.4939   -8.9447   17.1370 C   0  0  0  0  0  0  0  0  0  0  0  0
    5.8349   -8.2196   17.0601 C   0  0  0  0  0  0  0  0  0  0  0  0
   11.1020   -3.4445   25.2305 C   0  0  0  0  0  0  0  0  0  0  0  0
    4.1953   -8.5026   15.4640 C   0  0  0  0  0  0  0  0  0  0  0  0
   10.8731   -3.5250   17.6006 C   0  0  0  0  0  0  0  0  0  0  0  0
    9.8474   -5.1886   17.5607 C   0  0  0  0  0  0  0  0  0  0  0  0
    0.9370  -10.0636   16.0201 C   0  0  0  0  0  0  0  0  0  0  0  0
    6.7488   -8.2607   16.5721 C   0  0  0  0  0  0  0  0  0  0  0  0
   10.1427   -2.7275   24.2127 C   0  0  0  0  0  0  0  0  0  0  0  0
    8.1034   -7.1530   16.3163 C   0  0  0  0  0  0  0  0  0  0  0  0
   10.9151   -3.4409   18.8342 C   0  0  0  0  0  0  0  0  0  0  0  0
    8.0346   -8.1287   15.4081 C   0  0  0  0  0  0  0  0  0  0  0  0
   10.4100   -3.2405   22.6961 C   0  0  0  0  0  0  0  0  0  0  0  0
    9.6616   -1.5570   24.3900 C   0  0  0  0  0  0  0  0  0  0  0  0
    1.8591  -10.6505   18.1182 C   0  0  0  0  0  0  0  0  0  0  0  0
    9.8364   -1.6933   25.2489 C   0  0  0  0  0  0  0  0  0  0  0  0
   10.7730   -4.1394   21.1699 C   0  0  0  0  0  0  0  0  0  0  0  0
   -0.1789  -11.2135   17.4043 C   0  0  0  0  0  0  0  0  0  0  0  0
    9.8695   -4.5730   16.2034 C   0  0  0  0  0  0  0  0  0  0  0  0
    3.3845   -8.9313   16.4577 C   0  0  0  0  0  0  0  0  0  0  0  0
    1.1383   -9.9444   16.0787 C   0  0  0  0  0  0  0  0  0  0  0  0
    8.7372   -6.3862   15.7617 C   0  0  0  0  0  0  0  0  0  0  0  0
    2.4216   -9.8212   17.3186 C   0  0  0  0  0  0  0  0  0  0  0  0
    5.3671   -7.9426   17.5434 C   0  0  0  0  0  0  0  0  0  0  0  0
   10.5627   -4.3068   19.8239 C   0  0  0  0  0  0  0  0  0  0  0  0
  1 12  4  0
  2 12  4  0
  3  9  4  0
  3 15  4  0
  4 27  4  0
  5 11  1  0
  5 13  1  0
  6 17  1  0
  7 24  4  0
  8 22  1  0
  8 26  1  0
  9 34  4  0
 10 29  4  0
 10 32  4  0
 11 17  1  0
 11 33  1  0
 13 29  1  0
 14 20  4  0
 16 30  4  0
 17 21  1  0
 18 23  4  0
 19 21  1  0
 19 31  1  0
 20 34  4  0
 23 25  4  0
 24 32  4  0
 26 34  1  0
M  END
$$$$

 Created by Python create_sdf_string function

 34 66  0  0  0  0  0  0  0  0999 V2000
   10.6944   -3.2646   25.4771 C   0  0  0  0  0  0  0  0  0  0  0  0
   -0.4466  -11.6723   16.7863 C   0  0  0  0  0  0  0  0  0  0  0  0
    5.0095   -9.3235   15.9788 C   0  0  0  0  0  0  0  0  0  0  0  0
    7.8538   -7.6172   17.5311 O   0  0  0  0  0  0  0  0  0  0  0  0
   10.6444   -3.6088   21.9428 C   0  0  0  0  0  0  0  0  0  0  0  0
   10.0244   -5.5383   19.2612 O   0  0  0  0  0  0  0  0  0  0  0  0
    3.0037   -7.8285   17.7523 Cl  0  0  0  0  0  0  0  0  0  0  0  0
    5.7124   -8.0618   17.0233 C   0  0  0  0  0  0  0  0  0  0  0  0
   12.5608   -2.9580   24.3174 Cl  0  0  0  0  0  0  0  0  0  0  0  0
    4.3609   -8.8320   16.0120 C   0  0  0  0  0  0  0  0  0  0  0  0
   11.0061   -3.8531   17.5890 C   0  0  0  0  0  0  0  0  0  0  0  0
    0.7564   -9.8865   16.9711 C   0  0  0  0  0  0  0  0  0  0  0  0
   10.8483   -3.6553   18.8824 C   0  0  0  0  0  0  0  0  0  0  0  0
    7.7393   -7.8770   15.4124 C   0  0  0  0  0  0  0  0  0  0  0  0
   10.6467   -3.6272   22.8897 C   0  0  0  0  0  0  0  0  0  0  0  0
    9.5502   -1.4436   24.3099 C   0  0  0  0  0  0  0  0  0  0  0  0
   10.8611   -4.0836   21.4534 C   0  0  0  0  0  0  0  0  0  0  0  0
   -0.1262  -11.2548   17.4664 C   0  0  0  0  0  0  0  0  0  0  0  0
    7.2549   -7.3300   15.6755 C   0  0  0  0  0  0  0  0  0  0  0  0
    2.4768  -10.5909   16.9393 Cl  0  0  0  0  0  0  0  0  0  0  0  0
    5.1844   -8.2778   17.6957 N   0  0  0  0  0  0  0  0  0  0  0  0
   10.5368   -4.2655   20.0032 C   0  0  0  0  0  0  0  0  0  0  0  0
   10.0385   -2.6393   26.8212 He  0  0  0  0  0  0  0  0  0  0  0  0
   10.5078   -4.7244   17.4740 He  0  0  0  0  0  0  0  0  0  0  0  0
    0.9391  -10.5847   18.6491 He  0  0  0  0  0  0  0  0  0  0  0  0
    9.4535   -4.4024   17.8006 He  0  0  0  0  0  0  0  0  0  0  0  0
    6.8577   -7.7401   17.1203 He  0  0  0  0  0  0  0  0  0  0  0  0
   10.0913   -4.0930   24.4196 He  0  0  0  0  0  0  0  0  0  0  0  0
    7.6992   -7.4142   16.2987 He  0  0  0  0  0  0  0  0  0  0  0  0
    1.8045  -11.4230   18.2620 He  0  0  0  0  0  0  0  0  0  0  0  0
    8.6327   -1.1195   26.8740 He  0  0  0  0  0  0  0  0  0  0  0  0
   10.6330   -3.6695   15.7957 He  0  0  0  0  0  0  0  0  0  0  0  0
    3.2917   -8.3189   16.2051 He  0  0  0  0  0  0  0  0  0  0  0  0
    0.8124  -10.5955   16.3524 He  0  0  0  0  0  0  0  0  0  0  0  0
  1  2  1  0
  1  9  4  0
  1 10  1  0
  1 18  4  0
  1 20  4  0
  2 12  2  0
  2 13  1  0
  2 15  1  0
  2 16  2  0
  2 19  4  0
  3  4  1  0
  3  5  3  0
  3 10  1  0
  3 11  4  0
  3 13  1  0
  3 14  2  0
  3 21  3  0
  3 22  3  0
  4 13  2  0
  4 14  2  0
  4 15  2  0
  4 20  3  0
  4 21  4  0
  4 22  1  0
  5 12  1  0
  5 17  2  0
  5 18  3  0
  6  7  2  0
  6 12  4  0
  6 19  4  0
  6 22  4  0
  7 12  3  0
  7 13  4  0
  7 16  4  0
  7 19  3  0
  7 22  2  0
  8 15  3  0
  8 19  4  0
  9 14  1  0
  9 16  4  0
  9 19  3  0
 10 11  2  0
 10 12  1  0
 10 18  4  0
 10 19  3  0
 11 13  4  0
 11 16  3  0
 11 17  1  0
 11 21  3  0
 12 13  1  0
 12 14  3  0
 12 16  1  0
 12 18  2  0
 12 19  4  0
 12 20  1  0
 13 20  1  0
 13 22  3  0
 14 20  1  0
 14 21  4  0
 15 19  3  0
 15 22  3  0
 16 20  1  0
 16 21  2  0
 17 22  1  0
 19 21  2  0
 20 21  2  0
M  END
$$$$

 Created by Python create_sdf_string function

 34 30  0  0  0  0  0  0  0  0999 V2000
   10.1344   -2.6223   26.4657 C   0  0  0  0  0  0  0  0  0  0  0  0
   10.8848   -3.3191   25.7857 C   0  0  0  0  0  0  0  0  0  0  0  0
   10.0828   -4.8364   17.4979 C   0  0  0  0  0  0  0  0  0  0  0  0
   -0.4094  -11.2974   16.9504 C   0  0  0  0  0  0  0  0  0  0  0  0
    5.0406   -8.7930   16.1982 C   0  0  0  0  0  0  0  0  0  0  0  0
    8.1781   -7.2273   17.5702 C   0  0  0  0  0  0  0  0  0  0  0  0
    1.1701  -11.0579   18.4823 C   0  0  0  0  0  0  0  0  0  0  0  0
   10.9467   -3.9833   21.7560 O   0  0  0  0  0  0  0  0  0  0  0  0
    9.9580   -5.3964   19.2908 C   0  0  0  0  0  0  0  0  0  0  0  0
    3.2083   -8.4218   17.0550 C   0  0  0  0  0  0  0  0  0  0  0  0
    6.0875   -8.1155   16.5018 C   0  0  0  0  0  0  0  0  0  0  0  0
   11.0760   -3.5249   24.7329 C   0  0  0  0  0  0  0  0  0  0  0  0
    4.3320   -8.8836   16.0072 C   0  0  0  0  0  0  0  0  0  0  0  0
   10.8577   -3.5113   17.8767 C   0  0  0  0  0  0  0  0  0  0  0  0
    9.8024   -5.3964   18.1502 C   0  0  0  0  0  0  0  0  0  0  0  0
    1.1428   -9.9984   16.7364 C   0  0  0  0  0  0  0  0  0  0  0  0
    6.9579   -7.7878   17.2962 C   0  0  0  0  0  0  0  0  0  0  0  0
   10.2937   -2.8590   24.0656 C   0  0  0  0  0  0  0  0  0  0  0  0
    8.3875   -7.2955   16.4608 C   0  0  0  0  0  0  0  0  0  0  0  0
   10.9713   -3.3975   19.0803 C   0  0  0  0  0  0  0  0  0  0  0  0
    8.1153   -7.8676   15.6458 C   0  0  0  0  0  0  0  0  0  0  0  0
   10.7466   -3.4614   22.5763 C   0  0  0  0  0  0  0  0  0  0  0  0
    9.4954   -1.8821   24.5342 C   0  0  0  0  0  0  0  0  0  0  0  0
    1.4976  -10.9973   18.4500 C   0  0  0  0  0  0  0  0  0  0  0  0
    9.1699   -1.7912   25.7807 C   0  0  0  0  0  0  0  0  0  0  0  0
   10.8651   -4.1348   21.3602 C   0  0  0  0  0  0  0  0  0  0  0  0
   -0.3118  -11.5333   17.5534 C   0  0  0  0  0  0  0  0  0  0  0  0
   10.3213   -4.3134   16.1208 C   0  0  0  0  0  0  0  0  0  0  0  0
    3.0936   -8.8114   16.4310 C   0  0  0  0  0  0  0  0  0  0  0  0
    0.3365  -10.3965   16.3237 C   0  0  0  0  0  0  0  0  0  0  0  0
    6.8930   -7.8205   15.5741 C   0  0  0  0  0  0  0  0  0  0  0  0
    2.3174   -9.8636   17.3455 C   0  0  0  0  0  0  0  0  0  0  0  0
    5.1715   -8.3904   17.8475 N   0  0  0  0  0  0  0  0  0  0  0  0
   10.6520   -4.2649   19.9713 C   0  0  0  0  0  0  0  0  0  0  0  0
  1  2  4  0
  1 25  4  0
  2 12  4  0
  3 14  4  0
  3 15  4  0
  3 28  1  0
  4 27  4  0
  4 30  4  0
  5 13  1  0
  6 17  4  0
  6 19  4  0
  7 24  4  0
  8 26  2  0
  9 15  4  0
  9 34  4  0
 10 29  4  0
 11 17  4  0
 11 31  4  0
 12 18  4  0
 13 29  4  0
 14 20  4  0
 16 30  4  0
 18 22  1  0
 18 23  4  0
 19 21  4  0
 20 34  4  0
 21 31  4  0
 23 25  4  0
 24 32  4  0
 26 34  1  0
M  END
$$$$

 Created by Python create_sdf_string function

 34 91  0  0  0  0  0  0  0  0999 V2000
   10.4445   -3.4162   25.9425 C   0  0  0  0  0  0  0  0  0  0  0  0
   -0.0419  -11.0512   16.7365 C   0  0  0  0  0  0  0  0  0  0  0  0
    7.8103   -7.0618   18.4912 N   0  0  0  0  0  0  0  0  0  0  0  0
    1.2241  -10.9555   18.4731 C   0  0  0  0  0  0  0  0  0  0  0  0
   10.9745   -3.8910   22.0061 O   0  0  0  0  0  0  0  0  0  0  0  0
   10.4260   -5.3539   19.0866 C   0  0  0  0  0  0  0  0  0  0  0  0
    1.8061   -8.8030   17.3097 C   0  0  0  0  0  0  0  0  0  0  0  0
    6.3333   -7.8869   16.5043 C   0  0  0  0  0  0  0  0  0  0  0  0
   12.1592   -3.2956   23.7751 O   0  0  0  0  0  0  0  0  0  0  0  0
    4.8271   -7.9454   15.7811 C   0  0  0  0  0  0  0  0  0  0  0  0
   11.0332   -3.2938   17.7482 O   0  0  0  0  0  0  0  0  0  0  0  0
    0.2995   -9.9493   17.6818 Cl  0  0  0  0  0  0  0  0  0  0  0  0
    7.5844   -8.9604   17.3782 C   0  0  0  0  0  0  0  0  0  0  0  0
    8.9921   -3.3679   24.8942 N   0  0  0  0  0  0  0  0  0  0  0  0
    7.2104   -8.5131   17.4497 O   0  0  0  0  0  0  0  0  0  0  0  0
   11.1221   -3.6436   19.2560 C   0  0  0  0  0  0  0  0  0  0  0  0
    7.6161   -7.7651   15.9615 C   0  0  0  0  0  0  0  0  0  0  0  0
   11.8587   -2.2485   22.5091 O   0  0  0  0  0  0  0  0  0  0  0  0
    9.5954   -1.9628   24.5140 C   0  0  0  0  0  0  0  0  0  0  0  0
    1.2439  -11.0868   18.0555 F   0  0  0  0  0  0  0  0  0  0  0  0
   10.8975   -4.1495   21.3524 C   0  0  0  0  0  0  0  0  0  0  0  0
   -0.2533  -11.1762   17.7577 C   0  0  0  0  0  0  0  0  0  0  0  0
   10.6302   -4.7852   16.3406 S   0  0  0  0  0  0  0  0  0  0  0  0
    2.9418   -8.8050   16.8670 C   0  0  0  0  0  0  0  0  0  0  0  0
    1.6165   -8.7203   15.5697 C   0  0  0  0  0  0  0  0  0  0  0  0
    5.2723   -7.4203   16.7587 N   0  0  0  0  0  0  0  0  0  0  0  0
   10.3649   -4.2666   19.9520 C   0  0  0  0  0  0  0  0  0  0  0  0
    9.8490   -3.0580   26.0435 He  0  0  0  0  0  0  0  0  0  0  0  0
   10.2343   -4.0890   18.1014 He  0  0  0  0  0  0  0  0  0  0  0  0
    4.8083   -8.1267   15.7344 He  0  0  0  0  0  0  0  0  0  0  0  0
    9.2630   -5.0949   18.1764 He  0  0  0  0  0  0  0  0  0  0  0  0
    8.2948   -3.8521   26.5132 He  0  0  0  0  0  0  0  0  0  0  0  0
   -0.4565  -11.0811   17.6179 He  0  0  0  0  0  0  0  0  0  0  0  0
    6.6482   -8.7446   14.2813 He  0  0  0  0  0  0  0  0  0  0  0  0
  1  9  4  0
  1 12  2  0
  1 13  1  0
  1 14  1  0
  1 15  4  0
  1 23  3  0
  1 24  4  0
  1 25  4  0
  2  5  1  0
  2 10  1  0
  2 16  4  0
  3  4  1  0
  3 13  4  0
  3 15  4  0
  3 16  2  0
  3 24  3  0
  4  5  4  0
  4  7  4  0
  4 10  1  0
  4 11  2  0
  4 18  4  0
  4 23  1  0
  4 25  2  0
  5 23  4  0
  5 27  2  0
  6  7  2  0
  6 10  3  0
  6 23  1  0
  6 26  2  0
  6 27  4  0
  7 12  3  0
  7 15  3  0
  7 18  4  0
  7 19  1  0
  7 27  2  0
  8  9  2  0
  8 13  2  0
  8 14  3  0
  8 25  4  0
  8 26  1  0
  9 14  4  0
  9 15  2  0
  9 19  4  0
  9 20  2  0
  9 22  3  0
  9 24  3  0
 10 11  3  0
 10 13  2  0
 10 16  3  0
 10 24  4  0
 10 26  4  0
 10 27  1  0
 11 12  1  0
 11 15  4  0
 11 16  2  0
 11 19  2  0
 11 22  2  0
 11 25  4  0
 11 26  3  0
 12 13  2  0
 12 18  2  0
 12 22  4  0
 12 23  1  0
 12 24  3  0
 12 25  1  0
 12 27  2  0
 13 16  1  0
 13 18  3  0
 13 20  1  0
 14 22  1  0
 14 24  3  0
 15 16  4  0
 15 17  1  0
 15 20  4  0
 15 22  4  0
 15 23  3  0
 16 27  4  0
 17 22  1  0
 18 23  1  0
 18 24  3  0
 18 25  2  0
 18 26  4  0
 18 27  1  0
 19 23  1  0
 19 25  3  0
 20 24  1  0
 21 26  2  0
 21 27  1  0
 23 26  1  0
 23 27  2  0
 24 25  3  0
M  END
$$$$

 Created by Python create_sdf_string function

 34 28  0  0  0  0  0  0  0  0999 V2000
    9.5594   -3.0498   26.0320 C   0  0  0  0  0  0  0  0  0  0  0  0
   10.6127   -3.6943   25.6232 C   0  0  0  0  0  0  0  0  0  0  0  0
   10.2251   -4.4572   17.5323 C   0  0  0  0  0  0  0  0  0  0  0  0
   -0.2332  -10.6680   16.6633 C   0  0  0  0  0  0  0  0  0  0  0  0
    4.2624   -8.3750   15.6461 C   0  0  0  0  0  0  0  0  0  0  0  0
    8.5033   -6.7334   17.8141 N   0  0  0  0  0  0  0  0  0  0  0  0
    1.7286  -10.6943   18.2499 C   0  0  0  0  0  0  0  0  0  0  0  0
   10.8964   -3.9060   22.0615 O   0  0  0  0  0  0  0  0  0  0  0  0
    9.9585   -5.5316   19.4849 C   0  0  0  0  0  0  0  0  0  0  0  0
    2.4304   -9.6643   17.3349 C   0  0  0  0  0  0  0  0  0  0  0  0
    6.2511   -7.9772   17.1148 C   0  0  0  0  0  0  0  0  0  0  0  0
   10.9029   -3.2839   24.3933 C   0  0  0  0  0  0  0  0  0  0  0  0
    4.8665   -8.3142   15.9851 C   0  0  0  0  0  0  0  0  0  0  0  0
   10.9482   -3.2520   17.8720 C   0  0  0  0  0  0  0  0  0  0  0  0
    9.5391   -5.8337   18.1519 C   0  0  0  0  0  0  0  0  0  0  0  0
    0.6662  -10.1078   16.8019 C   0  0  0  0  0  0  0  0  0  0  0  0
    7.5413   -7.8183   17.4682 C   0  0  0  0  0  0  0  0  0  0  0  0
    9.3550   -2.9284   25.1115 N   0  0  0  0  0  0  0  0  0  0  0  0
    7.6088   -7.8296   17.2683 C   0  0  0  0  0  0  0  0  0  0  0  0
   10.9571   -3.3211   19.1605 C   0  0  0  0  0  0  0  0  0  0  0  0
    7.6487   -7.9892   15.7077 C   0  0  0  0  0  0  0  0  0  0  0  0
   11.2240   -2.9364   22.4643 O   0  0  0  0  0  0  0  0  0  0  0  0
    9.8438   -2.2176   24.4303 C   0  0  0  0  0  0  0  0  0  0  0  0
    1.2629  -10.8588   18.3648 C   0  0  0  0  0  0  0  0  0  0  0  0
    8.9794   -3.4597   26.2738 C   0  0  0  0  0  0  0  0  0  0  0  0
   10.9416   -4.2203   21.4900 C   0  0  0  0  0  0  0  0  0  0  0  0
   -0.3942  -11.1698   17.5271 C   0  0  0  0  0  0  0  0  0  0  0  0
    9.8254   -4.8236   16.6761 C   0  0  0  0  0  0  0  0  0  0  0  0
    2.9588   -8.8299   16.5959 C   0  0  0  0  0  0  0  0  0  0  0  0
   -0.6180  -11.4878   17.7249 C   0  0  0  0  0  0  0  0  0  0  0  0
    6.7403   -8.4266   15.2553 C   0  0  0  0  0  0  0  0  0  0  0  0
    1.9168   -8.9087   15.8519 C   0  0  0  0  0  0  0  0  0  0  0  0
    5.3453   -8.0063   16.9996 N   0  0  0  0  0  0  0  0  0  0  0  0
   10.5991   -4.3904   19.9749 C   0  0  0  0  0  0  0  0  0  0  0  0
  1 25  4  0
  2 12  4  0
  3 14  4  0
  3 28  4  0
  4 16  4  0
  4 27  4  0
  5 13  1  0
  6 15  1  0
  6 17  1  0
  7 10  4  0
  7 24  4  0
  8 22  1  0
  8 26  1  0
  9 15  4  0
  9 34  4  0
 10 29  4  0
 11 33  1  0
 12 23  4  0
 13 31  1  0
 13 33  4  0
 14 20  4  0
 16 27  4  0
 19 21  1  0
 20 34  4  0
 21 31  1  0
 26 34  1  0
 27 30  4  0
 29 32  4  0
M  END
$$$$

 Created by Python create_sdf_string function

 34 78  0  0  0  0  0  0  0  0999 V2000
   10.6440   -3.7003   25.3562 C   0  0  0  0  0  0  0  0  0  0  0  0
    8.8409   -7.0053   17.5410 N   0  0  0  0  0  0  0  0  0  0  0  0
    1.8458  -10.6099   18.0348 S   0  0  0  0  0  0  0  0  0  0  0  0
   10.9862   -4.1492   22.5267 O   0  0  0  0  0  0  0  0  0  0  0  0
   10.0258   -5.6075   20.1702 C   0  0  0  0  0  0  0  0  0  0  0  0
    6.3621   -8.2071   17.2020 P   0  0  0  0  0  0  0  0  0  0  0  0
   11.7427   -4.5187   24.3634 N   0  0  0  0  0  0  0  0  0  0  0  0
    5.0638   -6.5046   17.3058 C   0  0  0  0  0  0  0  0  0  0  0  0
   10.9657   -3.3196   17.6960 C   0  0  0  0  0  0  0  0  0  0  0  0
    8.6129   -6.8024   18.1939 O   0  0  0  0  0  0  0  0  0  0  0  0
    6.6180   -8.3720   16.4729 N   0  0  0  0  0  0  0  0  0  0  0  0
    6.6355   -8.5521   18.1294 C   0  0  0  0  0  0  0  0  0  0  0  0
   10.8297   -3.0382   19.2915 C   0  0  0  0  0  0  0  0  0  0  0  0
    7.7596   -7.9092   15.7336 C   0  0  0  0  0  0  0  0  0  0  0  0
   12.2136   -2.9768   22.6078 S   0  0  0  0  0  0  0  0  0  0  0  0
    9.6649   -2.1436   24.8957 C   0  0  0  0  0  0  0  0  0  0  0  0
    0.9320  -10.6532   18.3391 C   0  0  0  0  0  0  0  0  0  0  0  0
    7.5841   -3.9225   26.3511 C   0  0  0  0  0  0  0  0  0  0  0  0
   10.9302   -4.5920   21.3311 C   0  0  0  0  0  0  0  0  0  0  0  0
   -0.0251  -11.2979   17.6915 C   0  0  0  0  0  0  0  0  0  0  0  0
   10.5348   -5.1765   16.8779 C   0  0  0  0  0  0  0  0  0  0  0  0
    2.7351   -8.9403   17.1544 C   0  0  0  0  0  0  0  0  0  0  0  0
    5.8640   -8.8663   14.4493 C   0  0  0  0  0  0  0  0  0  0  0  0
    3.1892   -8.5123   14.9823 P   0  0  0  0  0  0  0  0  0  0  0  0
    6.1305   -7.9420   16.5886 N   0  0  0  0  0  0  0  0  0  0  0  0
    8.6015   -2.6951   26.5714 He  0  0  0  0  0  0  0  0  0  0  0  0
   11.1034   -4.9928   17.5638 He  0  0  0  0  0  0  0  0  0  0  0  0
   -0.1365  -10.5823   16.6473 He  0  0  0  0  0  0  0  0  0  0  0  0
    5.7247   -6.7842   16.0445 He  0  0  0  0  0  0  0  0  0  0  0  0
    2.6541   -9.6020   16.3921 He  0  0  0  0  0  0  0  0  0  0  0  0
    0.1935   -9.3857   16.2112 He  0  0  0  0  0  0  0  0  0  0  0  0
    9.6687   -4.2224   25.5087 He  0  0  0  0  0  0  0  0  0  0  0  0
   -0.7902  -12.5688   17.9571 He  0  0  0  0  0  0  0  0  0  0  0  0
   10.5908   -4.5151   19.8530 He  0  0  0  0  0  0  0  0  0  0  0  0
  1  2  2  0
  1  3  2  0
  1  7  4  0
  1 15  3  0
  1 24  4  0
  1 25  3  0
  2  4  3  0
  2  5  4  0
  2  6  4  0
  2  7  2  0
  2  8  4  0
  2  9  2  0
  2 19  1  0
  3  7  4  0
  3 11  2  0
  3 17  4  0
  3 19  2  0
  3 21  2  0
  3 23  1  0
  3 25  1  0
  4 12  2  0
  4 15  1  0
  4 19  1  0
  4 21  4  0
  5  7  4  0
  5 10  1  0
  5 21  4  0
  5 22  2  0
  5 23  4  0
  6  7  3  0
  6 11  3  0
  6 16  1  0
  7 11  4  0
  7 13  3  0
  7 15  3  0
  7 17  1  0
  7 18  3  0
  8 12  2  0
  8 21  3  0
  8 23  4  0
  9 13  4  0
  9 24  3  0
 10 12  4  0
 10 13  1  0
 10 18  4  0
 10 19  2  0
 10 20  2  0
 10 25  1  0
 11 22  3  0
 11 23  1  0
 12 14  1  0
 13 15  1  0
 13 16  1  0
 13 18  1  0
 13 24  3  0
 14 18  4  0
 14 23  1  0
 14 24  1  0
 15 17  2  0
 15 23  4  0
 15 24  4  0
 15 25  1  0
 16 18  3  0
 17 23  2  0
 18 19  1  0
 18 20  2  0
 18 21  3  0
 18 22  4  0
 18 23  1  0
 18 24  2  0
 18 25  3  0
 19 25  1  0
 20 25  1  0
 21 23  1  0
 21 24  2  0
 22 23  2  0
 22 25  2  0
 24 25  1  0
M  END
$$$$

 Created by Python create_sdf_string function

 34 30  0  0  0  0  0  0  0  0999 V2000
    8.8228   -3.1229   26.0758 C   0  0  0  0  0  0  0  0  0  0  0  0
   10.6249   -3.8772   25.1941 C   0  0  0  0  0  0  0  0  0  0  0  0
   10.1971   -5.0580   17.4865 C   0  0  0  0  0  0  0  0  0  0  0  0
   -0.1166  -10.5599   16.5451 C   0  0  0  0  0  0  0  0  0  0  0  0
    5.8559   -7.1767   16.1104 C   0  0  0  0  0  0  0  0  0  0  0  0
    8.7751   -7.0200   17.5414 C   0  0  0  0  0  0  0  0  0  0  0  0
    2.1410  -10.3920   18.0855 C   0  0  0  0  0  0  0  0  0  0  0  0
   10.9834   -3.8917   22.0439 O   0  0  0  0  0  0  0  0  0  0  0  0
   10.2037   -5.5408   19.2966 C   0  0  0  0  0  0  0  0  0  0  0  0
    2.8021   -8.7507   16.3098 C   0  0  0  0  0  0  0  0  0  0  0  0
    6.5095   -7.9926   17.5026 C   0  0  0  0  0  0  0  0  0  0  0  0
   10.8802   -3.6012   24.4979 C   0  0  0  0  0  0  0  0  0  0  0  0
    5.0201   -7.6092   17.2523 C   0  0  0  0  0  0  0  0  0  0  0  0
   11.0642   -3.3912   17.8023 C   0  0  0  0  0  0  0  0  0  0  0  0
    8.9241   -7.3028   17.9988 O   0  0  0  0  0  0  0  0  0  0  0  0
    0.7764   -9.8206   16.1960 C   0  0  0  0  0  0  0  0  0  0  0  0
    6.7335   -8.3853   15.9135 N   0  0  0  0  0  0  0  0  0  0  0  0
    9.9825   -3.6358   25.7841 C   0  0  0  0  0  0  0  0  0  0  0  0
    7.3223   -8.0730   17.5587 C   0  0  0  0  0  0  0  0  0  0  0  0
   11.0245   -3.4345   19.0855 C   0  0  0  0  0  0  0  0  0  0  0  0
    7.8816   -8.2079   15.6818 C   0  0  0  0  0  0  0  0  0  0  0  0
   11.4287   -3.4088   23.0686 C   0  0  0  0  0  0  0  0  0  0  0  0
    9.6398   -2.4091   24.6906 C   0  0  0  0  0  0  0  0  0  0  0  0
    1.1810  -11.0216   18.4794 C   0  0  0  0  0  0  0  0  0  0  0  0
    8.4694   -3.2433   26.1436 C   0  0  0  0  0  0  0  0  0  0  0  0
   10.8726   -4.5305   21.1850 C   0  0  0  0  0  0  0  0  0  0  0  0
    0.0110  -11.3038   17.7190 C   0  0  0  0  0  0  0  0  0  0  0  0
   10.1655   -5.0930   17.3784 C   0  0  0  0  0  0  0  0  0  0  0  0
    2.1462   -9.5811   16.9493 C   0  0  0  0  0  0  0  0  0  0  0  0
   -1.0271  -12.3441   18.1008 C   0  0  0  0  0  0  0  0  0  0  0  0
    5.9397   -8.9507   15.2883 C   0  0  0  0  0  0  0  0  0  0  0  0
    3.2574   -8.5511   15.4894 O   0  0  0  0  0  0  0  0  0  0  0  0
    4.8291   -8.3458   16.5122 N   0  0  0  0  0  0  0  0  0  0  0  0
   10.7575   -4.4023   19.8465 C   0  0  0  0  0  0  0  0  0  0  0  0
  1 18  4  0
  1 25  4  0
  2 12  4  0
  2 18  4  0
  3 28  4  0
  4 16  4  0
  4 27  4  0
  6 15  1  0
  7 24  4  0
  7 29  4  0
  8 22  1  0
  8 26  1  0
  9 34  4  0
 10 29  1  0
 10 32  2  0
 11 19  1  0
 12 22  1  0
 12 23  4  0
 13 33  1  0
 14 20  4  0
 16 29  4  0
 17 21  1  0
 17 31  1  0
 19 21  1  0
 20 34  4  0
 23 25  4  0
 24 27  4  0
 26 34  1  0
 27 30  1  0
 32 33  1  0
M  END
$$$$

 Created by Python create_sdf_string function

 34 87  0  0  0  0  0  0  0  0999 V2000
   10.7234   -5.0206   17.1343 N   0  0  0  0  0  0  0  0  0  0  0  0
   -0.0088   -9.8377   17.2963 C   0  0  0  0  0  0  0  0  0  0  0  0
    8.5330   -7.8231   16.9752 F   0  0  0  0  0  0  0  0  0  0  0  0
    1.6373  -10.6301   18.8014 C   0  0  0  0  0  0  0  0  0  0  0  0
   11.1628   -3.9668   22.0412 O   0  0  0  0  0  0  0  0  0  0  0  0
    9.8952   -5.1734   19.2679 C   0  0  0  0  0  0  0  0  0  0  0  0
    6.6913   -7.7255   17.1134 C   0  0  0  0  0  0  0  0  0  0  0  0
   11.2522   -3.0790   24.4391 N   0  0  0  0  0  0  0  0  0  0  0  0
    4.9892   -9.0289   17.9308 S   0  0  0  0  0  0  0  0  0  0  0  0
   10.7558   -3.2527   18.1821 C   0  0  0  0  0  0  0  0  0  0  0  0
    8.5510   -6.9377   19.3725 F   0  0  0  0  0  0  0  0  0  0  0  0
    0.6402  -10.1031   18.1218 C   0  0  0  0  0  0  0  0  0  0  0  0
    5.6999   -7.7512   17.8347 C   0  0  0  0  0  0  0  0  0  0  0  0
   10.1850   -4.2615   25.8902 O   0  0  0  0  0  0  0  0  0  0  0  0
   11.1554   -3.5542   19.3135 C   0  0  0  0  0  0  0  0  0  0  0  0
    8.1724   -8.2737   15.9555 C   0  0  0  0  0  0  0  0  0  0  0  0
    9.8264   -2.4942   25.0535 F   0  0  0  0  0  0  0  0  0  0  0  0
    0.8687  -10.9583   19.0338 C   0  0  0  0  0  0  0  0  0  0  0  0
    8.9320   -3.3879   26.2724 O   0  0  0  0  0  0  0  0  0  0  0  0
   10.9558   -4.2778   21.2943 C   0  0  0  0  0  0  0  0  0  0  0  0
   -0.2768  -11.4518   17.0365 P   0  0  0  0  0  0  0  0  0  0  0  0
    2.2733   -9.0923   16.6360 N   0  0  0  0  0  0  0  0  0  0  0  0
   -1.1953  -12.1224   19.0445 F   0  0  0  0  0  0  0  0  0  0  0  0
    3.9750   -8.5331   15.3026 Cl  0  0  0  0  0  0  0  0  0  0  0  0
    3.8391   -8.5130   15.1051 N   0  0  0  0  0  0  0  0  0  0  0  0
   10.8251   -4.3392   19.8724 C   0  0  0  0  0  0  0  0  0  0  0  0
    8.9858   -3.1087   26.1208 He  0  0  0  0  0  0  0  0  0  0  0  0
   10.7963   -3.9277   25.0975 He  0  0  0  0  0  0  0  0  0  0  0  0
    5.0933   -7.4270   16.7209 He  0  0  0  0  0  0  0  0  0  0  0  0
    3.4736   -9.0373   16.9407 He  0  0  0  0  0  0  0  0  0  0  0  0
    6.6550   -8.2493   17.6283 He  0  0  0  0  0  0  0  0  0  0  0  0
   10.7892   -3.3112   21.9145 He  0  0  0  0  0  0  0  0  0  0  0  0
    9.8672   -5.5289   17.6480 He  0  0  0  0  0  0  0  0  0  0  0  0
    5.8267   -9.6556   15.5523 He  0  0  0  0  0  0  0  0  0  0  0  0
  1  5  3  0
  1  8  2  0
  1 14  1  0
  1 15  1  0
  1 19  1  0
  1 24  2  0
  2  7  4  0
  2  9  2  0
  2 12  1  0
  2 15  3  0
  2 20  3  0
  2 22  2  0
  2 26  4  0
  3  5  1  0
  3  7  1  0
  3 15  3  0
  3 16  3  0
  3 17  3  0
  4  9  2  0
  4 14  4  0
  4 15  4  0
  4 21  4  0
  4 22  4  0
  4 24  1  0
  5 10  1  0
  5 20  1  0
  5 21  2  0
  6 11  1  0
  6 14  1  0
  6 25  3  0
  7  8  2  0
  7  9  2  0
  7 11  1  0
  7 24  2  0
  8  9  4  0
  8 14  1  0
  8 16  2  0
  8 22  4  0
  8 23  3  0
  8 24  4  0
  8 25  4  0
  8 26  1  0
  9 15  3  0
  9 17  3  0
  9 21  4  0
  9 22  4  0
  9 25  1  0
  9 26  1  0
 10 13  1  0
 10 14  4  0
 10 15  4  0
 10 19  2  0
 10 24  1  0
 10 25  1  0
 11 13  3  0
 11 19  1  0
 11 26  1  0
 12 14  3  0
 12 15  2  0
 12 16  3  0
 12 21  3  0
 12 22  1  0
 12 23  2  0
 13 16  1  0
 13 20  2  0
 14 18  3  0
 14 20  3  0
 14 24  1  0
 14 26  1  0
 15 23  2  0
 15 24  2  0
 15 26  4  0
 16 25  4  0
 17 21  3  0
 17 24  1  0
 17 25  1  0
 17 26  4  0
 18 21  4  0
 19 22  3  0
 19 23  4  0
 20 23  1  0
 20 24  1  0
 20 25  2  0
 21 23  3  0
 22 23  2  0
 23 24  3  0
 23 26  4  0
M  END
$$$$

 Created by Python create_sdf_string function

 34 28  0  0  0  0  0  0  0  0999 V2000
    8.9850   -3.2040   26.1274 C   0  0  0  0  0  0  0  0  0  0  0  0
   10.7944   -4.2257   25.2005 C   0  0  0  0  0  0  0  0  0  0  0  0
   10.0149   -5.1326   17.2756 C   0  0  0  0  0  0  0  0  0  0  0  0
    0.2331  -10.2072   17.1411 C   0  0  0  0  0  0  0  0  0  0  0  0
    5.7608   -8.1704   16.4877 C   0  0  0  0  0  0  0  0  0  0  0  0
    8.5633   -7.2718   16.9900 C   0  0  0  0  0  0  0  0  0  0  0  0
    1.7283  -10.8932   18.6232 C   0  0  0  0  0  0  0  0  0  0  0  0
   11.0988   -3.8827   21.9561 O   0  0  0  0  0  0  0  0  0  0  0  0
   10.1089   -5.5515   19.2822 C   0  0  0  0  0  0  0  0  0  0  0  0
    2.7014   -9.0659   16.7942 C   0  0  0  0  0  0  0  0  0  0  0  0
    7.5035   -7.4437   17.4903 C   0  0  0  0  0  0  0  0  0  0  0  0
   10.5563   -3.1977   24.1942 C   0  0  0  0  0  0  0  0  0  0  0  0
    4.6365   -8.9101   17.7605 N   0  0  0  0  0  0  0  0  0  0  0  0
   10.8615   -3.6426   17.8674 C   0  0  0  0  0  0  0  0  0  0  0  0
    8.8801   -6.7903   18.3598 C   0  0  0  0  0  0  0  0  0  0  0  0
    0.9245  -10.1272   17.3089 C   0  0  0  0  0  0  0  0  0  0  0  0
    5.7399   -8.2354   17.5695 C   0  0  0  0  0  0  0  0  0  0  0  0
   10.3605   -4.1934   25.8303 C   0  0  0  0  0  0  0  0  0  0  0  0
    7.1557   -7.9099   17.5077 C   0  0  0  0  0  0  0  0  0  0  0  0
   10.9805   -3.3908   19.1357 C   0  0  0  0  0  0  0  0  0  0  0  0
    7.8265   -8.3361   15.8905 C   0  0  0  0  0  0  0  0  0  0  0  0
   10.9855   -3.2580   22.5258 C   0  0  0  0  0  0  0  0  0  0  0  0
    9.6502   -2.3650   24.6717 C   0  0  0  0  0  0  0  0  0  0  0  0
    0.9419  -11.4271   19.0585 C   0  0  0  0  0  0  0  0  0  0  0  0
    8.9780   -3.0793   26.1402 C   0  0  0  0  0  0  0  0  0  0  0  0
   10.9393   -4.4628   21.0760 C   0  0  0  0  0  0  0  0  0  0  0  0
   -0.3968  -11.1719   17.7997 C   0  0  0  0  0  0  0  0  0  0  0  0
   10.1342   -4.9923   17.6926 C   0  0  0  0  0  0  0  0  0  0  0  0
    2.1409   -9.5951   17.2321 N   0  0  0  0  0  0  0  0  0  0  0  0
   -0.9821  -12.1497   18.8722 F   0  0  0  0  0  0  0  0  0  0  0  0
    6.2388   -8.7408   15.6462 C   0  0  0  0  0  0  0  0  0  0  0  0
    3.8847   -8.6710   15.8674 C   0  0  0  0  0  0  0  0  0  0  0  0
    3.6700   -8.6531   15.8438 N   0  0  0  0  0  0  0  0  0  0  0  0
   10.7384   -4.4099   19.9629 C   0  0  0  0  0  0  0  0  0  0  0  0
  1 18  4  0
  1 25  4  0
  2 12  4  0
  2 18  4  0
  3 28  4  0
  4 16  4  0
  4 27  4  0
  5 31  4  0
  6 11  1  0
  7 24  4  0
  7 29  4  0
  8 22  1  0
  8 26  1  0
  9 34  4  0
 10 29  1  0
 11 15  1  0
 11 19  4  0
 12 22  1  0
 12 23  4  0
 13 17  4  0
 14 20  4  0
 14 28  4  0
 16 29  1  0
 20 34  4  0
 21 31  4  0
 23 25  4  0
 26 34  1  0
 32 33  4  0
M  END
$$$$

 Created by Python create_sdf_string function

 34 76  0  0  0  0  0  0  0  0999 V2000
   10.4228   -4.1865   25.1908 C   0  0  0  0  0  0  0  0  0  0  0  0
    0.7526   -9.4757   17.3730 C   0  0  0  0  0  0  0  0  0  0  0  0
   10.6637   -6.5787   17.0972 C   0  0  0  0  0  0  0  0  0  0  0  0
    1.7339  -10.6607   18.5561 C   0  0  0  0  0  0  0  0  0  0  0  0
   11.0854   -3.7154   21.5542 O   0  0  0  0  0  0  0  0  0  0  0  0
    9.6978   -5.1132   19.4807 C   0  0  0  0  0  0  0  0  0  0  0  0
    7.9062   -7.5258   17.7475 C   0  0  0  0  0  0  0  0  0  0  0  0
   10.1405   -4.5608   26.1174 N   0  0  0  0  0  0  0  0  0  0  0  0
    5.8557  -10.1602   17.3193 N   0  0  0  0  0  0  0  0  0  0  0  0
   10.7194   -3.7674   17.5332 C   0  0  0  0  0  0  0  0  0  0  0  0
    0.4858   -9.8344   17.2517 C   0  0  0  0  0  0  0  0  0  0  0  0
    5.2497   -8.4310   16.0082 C   0  0  0  0  0  0  0  0  0  0  0  0
    9.2573   -4.2763   25.5501 P   0  0  0  0  0  0  0  0  0  0  0  0
    7.5181   -7.4822   17.3929 C   0  0  0  0  0  0  0  0  0  0  0  0
    8.3739   -8.5928   16.0950 C   0  0  0  0  0  0  0  0  0  0  0  0
   11.5052   -3.6104   22.5232 C   0  0  0  0  0  0  0  0  0  0  0  0
    9.0308   -2.4979   24.6098 C   0  0  0  0  0  0  0  0  0  0  0  0
    1.1389  -11.0537   19.4263 C   0  0  0  0  0  0  0  0  0  0  0  0
   -0.8688  -10.9630   17.8249 C   0  0  0  0  0  0  0  0  0  0  0  0
    9.7502   -3.4757   17.2146 C   0  0  0  0  0  0  0  0  0  0  0  0
    2.1792   -9.2141   17.2142 O   0  0  0  0  0  0  0  0  0  0  0  0
    4.3948   -8.6345   16.9582 C   0  0  0  0  0  0  0  0  0  0  0  0
    4.1294   -8.7794   15.1821 N   0  0  0  0  0  0  0  0  0  0  0  0
   10.7996   -4.5972   19.5079 O   0  0  0  0  0  0  0  0  0  0  0  0
    9.2350   -2.2403   26.6119 He  0  0  0  0  0  0  0  0  0  0  0  0
   10.2404   -5.4399   16.7283 He  0  0  0  0  0  0  0  0  0  0  0  0
    5.4651   -8.9258   16.0313 He  0  0  0  0  0  0  0  0  0  0  0  0
    4.1932   -7.7403   15.9677 He  0  0  0  0  0  0  0  0  0  0  0  0
    8.3264   -6.0146   18.9047 He  0  0  0  0  0  0  0  0  0  0  0  0
   10.9296   -3.2347   19.0145 He  0  0  0  0  0  0  0  0  0  0  0  0
    9.8943   -3.1943   26.0787 He  0  0  0  0  0  0  0  0  0  0  0  0
   10.7486   -4.3930   20.8839 He  0  0  0  0  0  0  0  0  0  0  0  0
   -0.7509  -13.0889   19.2902 He  0  0  0  0  0  0  0  0  0  0  0  0
    5.7060  -10.1318   16.7134 He  0  0  0  0  0  0  0  0  0  0  0  0
  1  5  3  0
  1 12  1  0
  1 13  4  0
  1 14  3  0
  2  4  4  0
  2  5  2  0
  2  7  4  0
  2  8  2  0
  2 10  1  0
  2 15  2  0
  2 17  1  0
  2 18  4  0
  3  7  1  0
  3  8  2  0
  3 15  1  0
  3 21  2  0
  4  8  4  0
  4  9  1  0
  4 14  4  0
  4 18  1  0
  5  8  1  0
  5 14  2  0
  5 16  1  0
  6 18  2  0
  6 24  3  0
  7  9  3  0
  7 11  3  0
  7 12  2  0
  7 14  2  0
  7 16  3  0
  7 20  4  0
  7 23  1  0
  8 12  2  0
  8 13  1  0
  8 17  4  0
  8 19  2  0
  8 20  3  0
  8 23  4  0
  9 12  4  0
  9 14  1  0
  9 15  2  0
  9 16  3  0
  9 17  2  0
  9 18  1  0
  9 20  4  0
  9 21  4  0
  9 23  1  0
 10 14  4  0
 10 16  2  0
 10 20  4  0
 11 15  4  0
 11 22  4  0
 12 18  4  0
 12 21  2  0
 13 14  3  0
 13 18  3  0
 13 21  1  0
 13 23  3  0
 14 16  3  0
 14 19  3  0
 14 21  1  0
 14 22  3  0
 15 16  1  0
 15 21  4  0
 15 22  3  0
 16 17  4  0
 16 21  4  0
 16 23  1  0
 17 20  3  0
 18 21  4  0
 18 22  2  0
 19 23  4  0
 20 22  2  0
 21 22  2  0
 21 24  3  0
 22 23  3  0
M  END
$$$$

 Created by Python create_sdf_string function

 34 32  0  0  0  0  0  0  0  0999 V2000
    9.4054   -2.4772   25.7721 C   0  0  0  0  0  0  0  0  0  0  0  0
   10.7782   -4.3203   24.7165 C   0  0  0  0  0  0  0  0  0  0  0  0
    9.7208   -5.2338   17.5145 C   0  0  0  0  0  0  0  0  0  0  0  0
    1.3776  -10.1566   17.5203 C   0  0  0  0  0  0  0  0  0  0  0  0
    6.4972   -8.2813   16.3592 C   0  0  0  0  0  0  0  0  0  0  0  0
    9.2023   -7.2814   16.9743 C   0  0  0  0  0  0  0  0  0  0  0  0
    1.8596  -10.9413   18.5861 C   0  0  0  0  0  0  0  0  0  0  0  0
   10.8173   -3.6238   21.9248 C   0  0  0  0  0  0  0  0  0  0  0  0
   10.0128   -5.3814   19.0983 C   0  0  0  0  0  0  0  0  0  0  0  0
    4.0945   -7.9190   16.1371 C   0  0  0  0  0  0  0  0  0  0  0  0
    8.2003   -7.1307   17.6824 C   0  0  0  0  0  0  0  0  0  0  0  0
   10.1903   -4.2158   26.1249 C   0  0  0  0  0  0  0  0  0  0  0  0
    5.8185   -9.6411   17.2848 C   0  0  0  0  0  0  0  0  0  0  0  0
   10.8257   -3.3080   17.6365 C   0  0  0  0  0  0  0  0  0  0  0  0
    8.4507   -6.3561   17.9705 N   0  0  0  0  0  0  0  0  0  0  0  0
    0.1883  -10.3020   17.1966 C   0  0  0  0  0  0  0  0  0  0  0  0
    5.4606   -8.0918   16.1303 C   0  0  0  0  0  0  0  0  0  0  0  0
   10.2217   -3.9798   25.6132 C   0  0  0  0  0  0  0  0  0  0  0  0
    7.2927   -7.7539   17.5471 C   0  0  0  0  0  0  0  0  0  0  0  0
   10.9313   -3.3305   19.0037 C   0  0  0  0  0  0  0  0  0  0  0  0
    7.9823   -8.2661   15.8500 C   0  0  0  0  0  0  0  0  0  0  0  0
   10.5847   -3.3271   23.2385 C   0  0  0  0  0  0  0  0  0  0  0  0
   10.0050   -2.3077   23.9967 C   0  0  0  0  0  0  0  0  0  0  0  0
    1.0668  -11.5616   19.3964 C   0  0  0  0  0  0  0  0  0  0  0  0
    9.5027   -2.6560   25.4598 C   0  0  0  0  0  0  0  0  0  0  0  0
   10.8052   -4.3742   21.0639 C   0  0  0  0  0  0  0  0  0  0  0  0
   -0.6396  -11.2148   17.8812 C   0  0  0  0  0  0  0  0  0  0  0  0
   10.2339   -4.1661   16.9632 C   0  0  0  0  0  0  0  0  0  0  0  0
    2.2392   -9.2139   16.8124 C   0  0  0  0  0  0  0  0  0  0  0  0
   -0.2612  -11.8064   18.9793 C   0  0  0  0  0  0  0  0  0  0  0  0
    5.3796   -9.7638   17.0486 C   0  0  0  0  0  0  0  0  0  0  0  0
    3.8044   -9.3182   16.8054 C   0  0  0  0  0  0  0  0  0  0  0  0
    3.5650   -8.9329   16.2113 N   0  0  0  0  0  0  0  0  0  0  0  0
   10.6585   -4.2847   19.7032 C   0  0  0  0  0  0  0  0  0  0  0  0
  1 25  4  0
  2 18  4  0
  3  9  4  0
  3 28  4  0
  4  7  4  0
  4 16  4  0
  4 29  1  0
  5 17  1  0
  5 19  1  0
  5 21  1  0
  6 11  1  0
  6 21  1  0
  7 24  4  0
  8 22  1  0
  8 26  1  0
  9 34  4  0
 10 17  4  0
 11 15  1  0
 11 19  1  0
 12 18  1  0
 13 31  2  0
 14 20  4  0
 14 28  4  0
 16 27  4  0
 20 34  4  0
 22 23  4  0
 23 25  4  0
 24 30  4  0
 26 34  1  0
 27 30  4  0
 31 32  1  0
 32 33  4  0
M  END
$$$$

 Created by Python create_sdf_string function

 34 45  0  0  0  0  0  0  0  0999 V2000
   10.5850   -4.4609   24.6346 C   0  0  0  0  0  0  0  0  0  0  0  0
   11.0885   -5.7950   17.7970 C   0  0  0  0  0  0  0  0  0  0  0  0
    6.6815   -8.4341   16.9225 C   0  0  0  0  0  0  0  0  0  0  0  0
    9.8045   -9.3744   16.9584 Se  0  0  0  0  0  0  0  0  0  0  0  0
    1.6393  -10.8008   18.4266 C   0  0  0  0  0  0  0  0  0  0  0  0
   10.9662   -3.6562   21.8765 C   0  0  0  0  0  0  0  0  0  0  0  0
   10.0648   -5.1776   19.4399 C   0  0  0  0  0  0  0  0  0  0  0  0
    5.5730   -7.7438   16.2815 C   0  0  0  0  0  0  0  0  0  0  0  0
   10.9501   -3.1887   17.4229 N   0  0  0  0  0  0  0  0  0  0  0  0
    9.1215   -6.7954   18.7289 C   0  0  0  0  0  0  0  0  0  0  0  0
    9.8513   -4.4690   25.7290 O   0  0  0  0  0  0  0  0  0  0  0  0
    8.7060   -7.2471   16.7502 O   0  0  0  0  0  0  0  0  0  0  0  0
   11.3294   -3.5398   19.3183 C   0  0  0  0  0  0  0  0  0  0  0  0
    7.8581   -8.1787   15.3854 C   0  0  0  0  0  0  0  0  0  0  0  0
   10.1451   -2.3886   24.5573 C   0  0  0  0  0  0  0  0  0  0  0  0
    1.0581  -11.6809   19.4098 C   0  0  0  0  0  0  0  0  0  0  0  0
    9.9066   -2.8845   27.2614 Cl  0  0  0  0  0  0  0  0  0  0  0  0
   10.3388   -4.6087   21.1542 C   0  0  0  0  0  0  0  0  0  0  0  0
   -0.4261  -11.6752   17.7592 F   0  0  0  0  0  0  0  0  0  0  0  0
    2.2471   -9.3375   16.9621 C   0  0  0  0  0  0  0  0  0  0  0  0
    3.7838   -9.0891   15.8546 C   0  0  0  0  0  0  0  0  0  0  0  0
    3.3146   -9.1012   17.1955 N   0  0  0  0  0  0  0  0  0  0  0  0
   10.7626   -4.1385   19.5674 C   0  0  0  0  0  0  0  0  0  0  0  0
    8.1783   -2.6193   25.4064 He  0  0  0  0  0  0  0  0  0  0  0  0
    2.1783   -9.9474   17.2985 He  0  0  0  0  0  0  0  0  0  0  0  0
    8.1015   -7.0256   17.5506 He  0  0  0  0  0  0  0  0  0  0  0  0
   11.7847   -4.6326   25.1915 He  0  0  0  0  0  0  0  0  0  0  0  0
    6.6129   -9.4597   17.5923 He  0  0  0  0  0  0  0  0  0  0  0  0
    0.5889  -10.1414   16.4611 He  0  0  0  0  0  0  0  0  0  0  0  0
    4.9644   -8.4073   15.8034 He  0  0  0  0  0  0  0  0  0  0  0  0
   10.1100   -4.6243   23.5469 He  0  0  0  0  0  0  0  0  0  0  0  0
   11.2681   -3.9316   19.0696 He  0  0  0  0  0  0  0  0  0  0  0  0
    0.7985  -11.5673   18.8401 He  0  0  0  0  0  0  0  0  0  0  0  0
    3.5182   -9.5510   17.1849 He  0  0  0  0  0  0  0  0  0  0  0  0
  1  5  1  0
  1 11  4  0
  1 22  2  0
  2  6  1  0
  2 10  1  0
  2 13  3  0
  2 15  1  0
  3 14  4  0
  4 11  1  0
  4 17  1  0
  4 21  2  0
  4 23  1  0
  5 16  4  0
  5 19  2  0
  6  8  2  0
  6 13  1  0
  6 14  4  0
  6 15  3  0
  6 22  2  0
  7 23  4  0
  8 10  2  0
  8 11  2  0
  8 16  1  0
  8 17  4  0
  8 21  2  0
  9 12  2  0
  9 13  4  0
 10 14  2  0
 10 19  3  0
 11 15  1  0
 11 18  1  0
 11 19  3  0
 12 14  3  0
 12 16  4  0
 13 15  4  0
 13 18  2  0
 13 20  4  0
 13 23  2  0
 14 21  3  0
 14 22  4  0
 15 17  4  0
 15 22  1  0
 18 23  1  0
 19 22  2  0
 21 23  2  0
M  END
$$$$

 Created by Python create_sdf_string function

 34 30  0  0  0  0  0  0  0  0999 V2000
    9.1684   -2.6916   25.8705 C   0  0  0  0  0  0  0  0  0  0  0  0
   10.4332   -3.9745   25.0463 C   0  0  0  0  0  0  0  0  0  0  0  0
   10.2758   -5.4941   18.3402 C   0  0  0  0  0  0  0  0  0  0  0  0
    1.6779  -10.2125   17.5361 C   0  0  0  0  0  0  0  0  0  0  0  0
    7.0404   -7.5221   16.9949 C   0  0  0  0  0  0  0  0  0  0  0  0
    8.6836   -8.5431   16.9270 C   0  0  0  0  0  0  0  0  0  0  0  0
    2.0217  -10.8229   18.6800 C   0  0  0  0  0  0  0  0  0  0  0  0
   11.1144   -3.7237   22.1345 C   0  0  0  0  0  0  0  0  0  0  0  0
   10.3748   -5.4318   19.6697 C   0  0  0  0  0  0  0  0  0  0  0  0
    5.5779   -8.2819   16.2578 C   0  0  0  0  0  0  0  0  0  0  0  0
    8.4267   -6.9349   17.5835 N   0  0  0  0  0  0  0  0  0  0  0  0
   11.1482   -4.3189   24.8944 C   0  0  0  0  0  0  0  0  0  0  0  0
    6.9392   -8.6908   16.9186 C   0  0  0  0  0  0  0  0  0  0  0  0
   11.0905   -3.4634   17.8410 C   0  0  0  0  0  0  0  0  0  0  0  0
    9.6979   -6.8072   17.9631 C   0  0  0  0  0  0  0  0  0  0  0  0
    0.5035  -10.5126   16.9813 C   0  0  0  0  0  0  0  0  0  0  0  0
    4.9192   -8.4614   16.2780 C   0  0  0  0  0  0  0  0  0  0  0  0
   10.4529   -4.2240   25.5573 C   0  0  0  0  0  0  0  0  0  0  0  0
    8.3414   -6.6462   16.6465 C   0  0  0  0  0  0  0  0  0  0  0  0
   11.0543   -3.2788   19.2493 C   0  0  0  0  0  0  0  0  0  0  0  0
    7.6722   -8.2763   15.7031 C   0  0  0  0  0  0  0  0  0  0  0  0
   10.8523   -3.9653   23.1738 C   0  0  0  0  0  0  0  0  0  0  0  0
    9.7933   -2.4993   24.5032 C   0  0  0  0  0  0  0  0  0  0  0  0
    1.1766  -11.5760   19.4811 C   0  0  0  0  0  0  0  0  0  0  0  0
    9.3854   -2.7327   26.6309 C   0  0  0  0  0  0  0  0  0  0  0  0
   10.9290   -4.0068   21.5155 C   0  0  0  0  0  0  0  0  0  0  0  0
   -0.2918  -11.4788   17.7810 C   0  0  0  0  0  0  0  0  0  0  0  0
   10.7862   -4.5497   17.5469 C   0  0  0  0  0  0  0  0  0  0  0  0
    2.4823   -9.3724   16.7135 C   0  0  0  0  0  0  0  0  0  0  0  0
    0.1243  -11.8911   18.8989 C   0  0  0  0  0  0  0  0  0  0  0  0
    3.6550   -8.6944   15.9346 C   0  0  0  0  0  0  0  0  0  0  0  0
    3.9762   -9.2022   17.3170 N   0  0  0  0  0  0  0  0  0  0  0  0
    3.7832   -8.9629   17.0627 N   0  0  0  0  0  0  0  0  0  0  0  0
   10.7861   -4.1859   20.0329 C   0  0  0  0  0  0  0  0  0  0  0  0
  1 25  4  0
  2 18  4  0
  3  9  4  0
  3 15  1  0
  3 28  4  0
  4  7  4  0
  4 16  4  0
  4 29  1  0
  5 11  1  0
  6 13  1  0
  6 21  1  0
  7 24  4  0
  8 22  1  0
  8 26  1  0
  9 34  4  0
 10 13  1  0
 10 17  4  0
 11 15  1  0
 11 19  1  0
 12 18  4  0
 13 21  1  0
 14 20  4  0
 14 28  4  0
 16 27  4  0
 20 34  4  0
 24 30  4  0
 26 34  1  0
 27 30  4  0
 29 31  4  0
 32 33  4  0
M  END
$$$$

 Created by Python create_sdf_string function

 34 90  0  0  0  0  0  0  0  0999 V2000
   10.4945   -4.0205   25.2506 S   0  0  0  0  0  0  0  0  0  0  0  0
    6.8103   -7.4947   15.8956 N   0  0  0  0  0  0  0  0  0  0  0  0
    2.4228  -10.5340   18.1758 C   0  0  0  0  0  0  0  0  0  0  0  0
   10.4483   -5.5431   19.7910 S   0  0  0  0  0  0  0  0  0  0  0  0
    5.1716   -9.4167   15.5515 N   0  0  0  0  0  0  0  0  0  0  0  0
    8.2967   -6.8978   17.6846 N   0  0  0  0  0  0  0  0  0  0  0  0
   11.9133   -4.5311   24.6934 Cl  0  0  0  0  0  0  0  0  0  0  0  0
   11.0247   -3.4441   18.1245 C   0  0  0  0  0  0  0  0  0  0  0  0
   10.1504   -7.5483   17.9372 C   0  0  0  0  0  0  0  0  0  0  0  0
    0.3427   -9.6123   17.6009 C   0  0  0  0  0  0  0  0  0  0  0  0
   10.2847   -4.0563   26.2135 C   0  0  0  0  0  0  0  0  0  0  0  0
    7.8336   -5.7780   16.0898 F   0  0  0  0  0  0  0  0  0  0  0  0
   11.0627   -3.1459   19.1256 C   0  0  0  0  0  0  0  0  0  0  0  0
    7.2074   -8.6101   15.2432 C   0  0  0  0  0  0  0  0  0  0  0  0
   10.4328   -3.1873   23.3143 B   0  0  0  0  0  0  0  0  0  0  0  0
   10.0387   -2.8173   24.4869 C   0  0  0  0  0  0  0  0  0  0  0  0
    1.3843  -11.8514   19.5824 C   0  0  0  0  0  0  0  0  0  0  0  0
    8.5409   -1.9209   26.3548 C   0  0  0  0  0  0  0  0  0  0  0  0
   11.0828   -3.7785   21.3172 N   0  0  0  0  0  0  0  0  0  0  0  0
   -0.6463  -11.4189   17.5172 C   0  0  0  0  0  0  0  0  0  0  0  0
   10.3006   -4.9085   17.0302 S   0  0  0  0  0  0  0  0  0  0  0  0
    2.1851   -9.1353   16.3721 C   0  0  0  0  0  0  0  0  0  0  0  0
    1.0590  -12.3938   19.0943 C   0  0  0  0  0  0  0  0  0  0  0  0
    4.0272   -9.0188   15.9130 C   0  0  0  0  0  0  0  0  0  0  0  0
    2.4943   -8.9922   16.6650 I   0  0  0  0  0  0  0  0  0  0  0  0
   10.8503   -4.3062   20.3854 C   0  0  0  0  0  0  0  0  0  0  0  0
    9.3912   -2.3357   26.5850 He  0  0  0  0  0  0  0  0  0  0  0  0
   11.2074   -5.4651   18.7619 He  0  0  0  0  0  0  0  0  0  0  0  0
    1.1225   -9.8711   15.4877 He  0  0  0  0  0  0  0  0  0  0  0  0
    8.9040   -8.8821   16.5831 He  0  0  0  0  0  0  0  0  0  0  0  0
   10.9457   -4.1892   22.1328 He  0  0  0  0  0  0  0  0  0  0  0  0
    8.1243   -9.6467   17.5271 He  0  0  0  0  0  0  0  0  0  0  0  0
    5.2400   -8.6778   16.6796 He  0  0  0  0  0  0  0  0  0  0  0  0
    3.0406   -9.1949   17.6194 He  0  0  0  0  0  0  0  0  0  0  0  0
  1  7  4  0
  1 10  3  0
  1 11  4  0
  1 13  1  0
  1 18  1  0
  1 24  3  0
  1 25  4  0
  2  3  2  0
  2  7  4  0
  2  8  2  0
  2 12  4  0
  2 14  1  0
  2 15  4  0
  2 18  2  0
  2 20  2  0
  2 26  4  0
  3  6  2  0
  3 17  4  0
  3 21  4  0
  3 24  3  0
  3 25  3  0
  4  9  3  0
  4 10  4  0
  4 12  4  0
  4 17  1  0
  4 18  3  0
  4 26  3  0
  5  7  3  0
  5 10  1  0
  5 13  3  0
  5 18  4  0
  5 21  2  0
  5 26  2  0
  6  8  2  0
  6 15  2  0
  6 17  4  0
  6 23  1  0
  7  9  3  0
  7 11  4  0
  7 13  1  0
  7 20  2  0
  7 21  3  0
  7 24  2  0
  8  9  3  0
  8 11  3  0
  8 13  4  0
  8 15  3  0
  8 21  2  0
  9 11  1  0
  9 12  1  0
  9 18  4  0
  9 23  1  0
  9 26  1  0
 10 12  4  0
 10 20  3  0
 11 12  2  0
 11 14  2  0
 11 15  1  0
 11 17  2  0
 11 26  3  0
 12 13  3  0
 12 16  1  0
 12 18  2  0
 12 19  2  0
 12 20  2  0
 12 21  2  0
 12 22  2  0
 13 15  4  0
 13 21  4  0
 13 26  4  0
 14 16  2  0
 14 17  1  0
 14 18  2  0
 14 23  1  0
 15 16  3  0
 15 26  2  0
 16 24  4  0
 17 23  1  0
 17 24  1  0
 18 20  2  0
 18 24  4  0
 18 25  2  0
 19 21  3  0
 19 23  4  0
 19 26  1  0
 20 24  1  0
 21 23  2  0
 21 24  2  0
 22 24  3  0
 23 25  2  0
M  END
$$$$

 Created by Python create_sdf_string function

 34 33  0  0  0  0  0  0  0  0999 V2000
    9.2175   -2.5541   26.2496 C   0  0  0  0  0  0  0  0  0  0  0  0
   10.6821   -4.0202   25.6530 C   0  0  0  0  0  0  0  0  0  0  0  0
   10.2406   -5.6350   18.4243 C   0  0  0  0  0  0  0  0  0  0  0  0
    1.0696   -9.3378   15.8814 N   0  0  0  0  0  0  0  0  0  0  0  0
    6.7153   -7.4324   16.0025 C   0  0  0  0  0  0  0  0  0  0  0  0
    8.3780   -8.4010   16.6794 C   0  0  0  0  0  0  0  0  0  0  0  0
    2.3375  -10.7935   18.4934 C   0  0  0  0  0  0  0  0  0  0  0  0
   10.8222   -3.8790   22.2184 C   0  0  0  0  0  0  0  0  0  0  0  0
   10.5950   -5.4633   19.7622 C   0  0  0  0  0  0  0  0  0  0  0  0
    5.1395   -8.9235   16.0150 N   0  0  0  0  0  0  0  0  0  0  0  0
    8.4882   -6.6427   17.3061 N   0  0  0  0  0  0  0  0  0  0  0  0
   11.3462   -4.5718   24.6333 Cl  0  0  0  0  0  0  0  0  0  0  0  0
    7.6663   -8.5493   17.3256 C   0  0  0  0  0  0  0  0  0  0  0  0
   10.8494   -3.3956   17.9061 C   0  0  0  0  0  0  0  0  0  0  0  0
    9.8007   -6.9997   18.1313 C   0  0  0  0  0  0  0  0  0  0  0  0
    0.6222  -10.3297   17.1097 C   0  0  0  0  0  0  0  0  0  0  0  0
    5.3798   -8.5340   16.5071 C   0  0  0  0  0  0  0  0  0  0  0  0
   10.2919   -3.6918   26.3567 C   0  0  0  0  0  0  0  0  0  0  0  0
    7.9794   -6.1325   16.5189 C   0  0  0  0  0  0  0  0  0  0  0  0
   11.0324   -3.1893   19.1491 N   0  0  0  0  0  0  0  0  0  0  0  0
    7.3289   -8.3027   15.6641 C   0  0  0  0  0  0  0  0  0  0  0  0
   10.5914   -3.5191   23.6962 C   0  0  0  0  0  0  0  0  0  0  0  0
    9.8068   -2.5039   24.0756 C   0  0  0  0  0  0  0  0  0  0  0  0
    1.5169  -11.6168   19.2151 C   0  0  0  0  0  0  0  0  0  0  0  0
    9.2911   -2.3829   25.5595 C   0  0  0  0  0  0  0  0  0  0  0  0
   10.9584   -3.7558   21.4392 C   0  0  0  0  0  0  0  0  0  0  0  0
   -0.1563  -11.2209   17.7145 C   0  0  0  0  0  0  0  0  0  0  0  0
   10.3665   -4.6425   17.5085 C   0  0  0  0  0  0  0  0  0  0  0  0
    2.1917   -9.0219   15.6638 C   0  0  0  0  0  0  0  0  0  0  0  0
    0.3461  -11.9010   18.8889 C   0  0  0  0  0  0  0  0  0  0  0  0
    3.7764   -8.7056   16.0596 C   0  0  0  0  0  0  0  0  0  0  0  0
    3.1970   -9.0944   16.9569 C   0  0  0  0  0  0  0  0  0  0  0  0
    2.1382   -9.8736   17.2717 C   0  0  0  0  0  0  0  0  0  0  0  0
   10.9153   -4.1420   20.0831 C   0  0  0  0  0  0  0  0  0  0  0  0
  1 25  4  0
  2 12  4  0
  2 18  4  0
  3  9  4  0
  3 15  1  0
  3 28  4  0
  4 16  4  0
  4 29  4  0
  5 19  1  0
  5 21  1  0
  6 13  1  0
  6 21  1  0
  7 24  4  0
  7 33  4  0
  8 22  1  0
  8 26  1  0
  9 34  4  0
 10 17  1  0
 11 15  1  0
 11 19  1  0
 12 22  4  0
 14 20  4  0
 14 28  4  0
 16 27  4  0
 16 33  4  0
 20 34  4  0
 22 23  4  0
 23 25  4  0
 24 30  4  0
 26 34  1  0
 27 30  4  0
 31 32  4  0
 32 33  4  0
M  END
$$$$

 Created by Python create_sdf_string function

 34 72  0  0  0  0  0  0  0  0999 V2000
    7.1640   -1.7387   27.3042 C   0  0  0  0  0  0  0  0  0  0  0  0
   10.3655   -3.5055   25.2346 C   0  0  0  0  0  0  0  0  0  0  0  0
    1.9912   -9.1707   15.1898 N   0  0  0  0  0  0  0  0  0  0  0  0
    2.0346  -10.7813   18.3950 C   0  0  0  0  0  0  0  0  0  0  0  0
   10.9757   -3.7829   22.4854 C   0  0  0  0  0  0  0  0  0  0  0  0
   10.5280   -5.4004   19.6158 C   0  0  0  0  0  0  0  0  0  0  0  0
    8.8814   -6.4707   17.2849 F   0  0  0  0  0  0  0  0  0  0  0  0
   11.3709   -4.6028   24.3979 Cl  0  0  0  0  0  0  0  0  0  0  0  0
   10.7620   -6.7302   17.3367 N   0  0  0  0  0  0  0  0  0  0  0  0
    0.3251  -11.1263   17.7577 Cl  0  0  0  0  0  0  0  0  0  0  0  0
   11.1735   -3.5994   28.0255 C   0  0  0  0  0  0  0  0  0  0  0  0
    8.4249   -6.6734   17.0092 N   0  0  0  0  0  0  0  0  0  0  0  0
   10.8137   -3.4861   19.0172 N   0  0  0  0  0  0  0  0  0  0  0  0
    7.5112   -8.0198   15.8093 C   0  0  0  0  0  0  0  0  0  0  0  0
   11.1416   -4.1105   24.0516 C   0  0  0  0  0  0  0  0  0  0  0  0
    9.5037   -2.8326   24.0843 P   0  0  0  0  0  0  0  0  0  0  0  0
    1.5404  -11.1788   19.0635 C   0  0  0  0  0  0  0  0  0  0  0  0
    8.4876   -2.7884   24.9548 C   0  0  0  0  0  0  0  0  0  0  0  0
   11.5782   -3.4119   21.4379 C   0  0  0  0  0  0  0  0  0  0  0  0
   -0.2957  -11.4882   17.7664 C   0  0  0  0  0  0  0  0  0  0  0  0
    9.4374   -4.2703   17.9021 N   0  0  0  0  0  0  0  0  0  0  0  0
    2.3769   -8.8447   15.8711 C   0  0  0  0  0  0  0  0  0  0  0  0
    3.1948   -8.4469   16.1921 C   0  0  0  0  0  0  0  0  0  0  0  0
    3.1182   -9.2584   17.1708 C   0  0  0  0  0  0  0  0  0  0  0  0
    1.8177  -10.5580   17.6000 N   0  0  0  0  0  0  0  0  0  0  0  0
   10.9323   -4.4938   19.6891 C   0  0  0  0  0  0  0  0  0  0  0  0
    8.5053   -6.5686   18.5917 He  0  0  0  0  0  0  0  0  0  0  0  0
    7.4542   -5.7013   15.1523 He  0  0  0  0  0  0  0  0  0  0  0  0
    8.5699   -8.5986   16.7916 He  0  0  0  0  0  0  0  0  0  0  0  0
    5.2227   -9.9481   17.2337 He  0  0  0  0  0  0  0  0  0  0  0  0
    7.9012   -8.6818   17.3874 He  0  0  0  0  0  0  0  0  0  0  0  0
   10.4291   -3.0483   18.1760 He  0  0  0  0  0  0  0  0  0  0  0  0
    4.8356   -8.3852   16.2070 He  0  0  0  0  0  0  0  0  0  0  0  0
    0.0776  -10.9555   18.3953 He  0  0  0  0  0  0  0  0  0  0  0  0
  1  4  1  0
  1  8  4  0
  1  9  1  0
  1 15  1  0
  1 17  4  0
  1 21  4  0
  1 22  3  0
  2  4  2  0
  2 10  2  0
  2 11  4  0
  2 13  2  0
  2 22  2  0
  2 23  3  0
  3  5  2  0
  3 10  4  0
  3 13  2  0
  3 15  2  0
  3 20  3  0
  3 21  1  0
  4  6  2  0
  4 12  3  0
  4 17  4  0
  4 25  4  0
  5  6  1  0
  5  8  1  0
  5 19  1  0
  5 24  1  0
  6 24  2  0
  6 26  4  0
  7  8  3  0
  7  9  4  0
  7 13  1  0
  7 15  2  0
  7 24  1  0
  8 10  3  0
  8 14  2  0
  8 18  4  0
  8 23  4  0
  8 24  1  0
  9 11  4  0
  9 17  3  0
  9 18  1  0
  9 19  4  0
  9 23  2  0
  9 26  1  0
 10 11  1  0
 10 12  4  0
 10 14  1  0
 10 17  1  0
 10 19  2  0
 10 20  2  0
 10 21  3  0
 11 20  1  0
 11 23  3  0
 11 24  2  0
 12 17  1  0
 13 22  4  0
 13 23  2  0
 13 24  4  0
 13 26  4  0
 14 23  2  0
 15 20  3  0
 15 26  3  0
 16 17  3  0
 16 18  2  0
 16 22  3  0
 17 22  1  0
 18 21  3  0
 18 24  4  0
 19 26  1  0
 21 26  4  0
 23 24  4  0
M  END
$$$$

 Created by Python create_sdf_string function

 34 36  0  0  0  0  0  0  0  0999 V2000
    8.2068   -2.3461   26.5636 Cl  0  0  0  0  0  0  0  0  0  0  0  0
   10.5695   -3.7982   25.9678 C   0  0  0  0  0  0  0  0  0  0  0  0
    9.8877   -5.6226   18.4979 C   0  0  0  0  0  0  0  0  0  0  0  0
    1.1709   -9.5369   15.7780 N   0  0  0  0  0  0  0  0  0  0  0  0
    7.2628   -6.5264   15.6331 C   0  0  0  0  0  0  0  0  0  0  0  0
    7.9670   -8.3848   16.6369 C   0  0  0  0  0  0  0  0  0  0  0  0
    2.2006  -10.7359   18.5272 C   0  0  0  0  0  0  0  0  0  0  0  0
   10.9961   -3.9761   22.5138 C   0  0  0  0  0  0  0  0  0  0  0  0
   10.3442   -5.3927   19.8089 C   0  0  0  0  0  0  0  0  0  0  0  0
    5.4543   -9.1396   17.1248 C   0  0  0  0  0  0  0  0  0  0  0  0
    8.8326   -6.8611   17.1388 C   0  0  0  0  0  0  0  0  0  0  0  0
   11.2793   -4.1403   24.5691 C   0  0  0  0  0  0  0  0  0  0  0  0
    7.6348   -8.3124   17.5042 C   0  0  0  0  0  0  0  0  0  0  0  0
   10.5531   -3.3868   18.0047 C   0  0  0  0  0  0  0  0  0  0  0  0
    9.7193   -6.8509   17.9599 N   0  0  0  0  0  0  0  0  0  0  0  0
    0.8854  -10.3513   16.9795 C   0  0  0  0  0  0  0  0  0  0  0  0
    5.2682   -8.5555   16.4524 N   0  0  0  0  0  0  0  0  0  0  0  0
   10.5664   -3.7896   26.3492 C   0  0  0  0  0  0  0  0  0  0  0  0
    8.2797   -6.1951   16.5007 N   0  0  0  0  0  0  0  0  0  0  0  0
   10.9532   -3.3018   19.3835 N   0  0  0  0  0  0  0  0  0  0  0  0
    6.9666   -8.0803   15.7201 C   0  0  0  0  0  0  0  0  0  0  0  0
   10.6723   -3.5708   23.9525 C   0  0  0  0  0  0  0  0  0  0  0  0
    9.6022   -2.7342   24.3118 C   0  0  0  0  0  0  0  0  0  0  0  0
    1.3616  -11.3466   19.3602 C   0  0  0  0  0  0  0  0  0  0  0  0
    9.1365   -2.6961   25.5672 C   0  0  0  0  0  0  0  0  0  0  0  0
   11.3169   -4.0368   21.5132 C   0  0  0  0  0  0  0  0  0  0  0  0
   -0.0300  -11.1507   17.5957 C   0  0  0  0  0  0  0  0  0  0  0  0
    9.9019   -4.4974   17.6707 N   0  0  0  0  0  0  0  0  0  0  0  0
    2.2377   -8.9765   15.5951 C   0  0  0  0  0  0  0  0  0  0  0  0
    0.2045  -11.5809   18.8395 C   0  0  0  0  0  0  0  0  0  0  0  0
    3.2147   -8.8412   16.3065 C   0  0  0  0  0  0  0  0  0  0  0  0
    3.2744   -9.2556   16.7928 C   0  0  0  0  0  0  0  0  0  0  0  0
    1.9090  -10.1558   17.4312 C   0  0  0  0  0  0  0  0  0  0  0  0
   10.8238   -4.2522   20.1593 C   0  0  0  0  0  0  0  0  0  0  0  0
  1 25  1  0
  2 12  4  0
  2 18  4  0
  3  9  4  0
  3 15  1  0
  3 28  4  0
  4 16  4  0
  4 29  4  0
  5 19  1  0
  5 21  1  0
  6 11  1  0
  6 13  1  0
  6 21  1  0
  7 24  4  0
  7 33  4  0
  8 22  1  0
  8 26  1  0
  9 34  4  0
 10 17  1  0
 11 15  1  0
 11 19  1  0
 12 22  4  0
 14 20  4  0
 14 28  4  0
 16 27  4  0
 16 33  4  0
 17 21  1  0
 20 34  4  0
 22 23  4  0
 23 25  4  0
 24 30  4  0
 26 34  1  0
 27 30  4  0
 29 31  4  0
 31 32  4  0
 32 33  4  0
M  END
$$$$

 Created by Python create_sdf_string function

 34 82  0  0  0  0  0  0  0  0999 V2000
   10.3784   -3.7671   26.1205 C   0  0  0  0  0  0  0  0  0  0  0  0
    8.8564   -4.9586   18.9591 C   0  0  0  0  0  0  0  0  0  0  0  0
    1.9771   -9.7578   16.4718 Se  0  0  0  0  0  0  0  0  0  0  0  0
    6.8470   -6.9000   15.3474 F   0  0  0  0  0  0  0  0  0  0  0  0
    7.8401   -9.5004   17.5207 C   0  0  0  0  0  0  0  0  0  0  0  0
    2.3428  -10.3875   18.7424 C   0  0  0  0  0  0  0  0  0  0  0  0
   10.8347   -3.8855   22.5419 N   0  0  0  0  0  0  0  0  0  0  0  0
   10.4020   -5.5287   20.1100 C   0  0  0  0  0  0  0  0  0  0  0  0
    8.8496   -6.9901   16.7314 C   0  0  0  0  0  0  0  0  0  0  0  0
   11.3342   -3.7348   25.6298 O   0  0  0  0  0  0  0  0  0  0  0  0
   10.6005   -3.6135   17.4330 C   0  0  0  0  0  0  0  0  0  0  0  0
   10.5188   -6.4266   19.0566 N   0  0  0  0  0  0  0  0  0  0  0  0
    1.1308   -9.7163   16.8495 C   0  0  0  0  0  0  0  0  0  0  0  0
    5.8035   -8.2489   15.3611 N   0  0  0  0  0  0  0  0  0  0  0  0
    7.2765   -6.5630   16.4256 N   0  0  0  0  0  0  0  0  0  0  0  0
   10.9215   -2.9734   19.4743 O   0  0  0  0  0  0  0  0  0  0  0  0
    6.4610   -8.1282   15.9808 C   0  0  0  0  0  0  0  0  0  0  0  0
    9.9630   -3.0672   24.7171 N   0  0  0  0  0  0  0  0  0  0  0  0
    9.6299   -2.7652   24.2009 C   0  0  0  0  0  0  0  0  0  0  0  0
    1.5629  -11.5086   19.4169 P   0  0  0  0  0  0  0  0  0  0  0  0
    8.4420   -4.2577   25.2263 C   0  0  0  0  0  0  0  0  0  0  0  0
   11.8391   -4.0234   21.4775 C   0  0  0  0  0  0  0  0  0  0  0  0
   -0.2696  -11.2234   17.7583 C   0  0  0  0  0  0  0  0  0  0  0  0
    2.5932   -8.9530   15.2309 C   0  0  0  0  0  0  0  0  0  0  0  0
    3.9988   -9.8294   17.0335 C   0  0  0  0  0  0  0  0  0  0  0  0
   10.8095   -4.7224   20.0035 C   0  0  0  0  0  0  0  0  0  0  0  0
    7.8966   -2.0012   26.4786 He  0  0  0  0  0  0  0  0  0  0  0  0
    5.9858   -9.1445   17.2913 He  0  0  0  0  0  0  0  0  0  0  0  0
    8.2472   -9.1416   16.7148 He  0  0  0  0  0  0  0  0  0  0  0  0
   11.3411   -2.9713   26.6848 He  0  0  0  0  0  0  0  0  0  0  0  0
    9.9497   -5.2506   17.5324 He  0  0  0  0  0  0  0  0  0  0  0  0
    0.5983  -11.4250   18.9608 He  0  0  0  0  0  0  0  0  0  0  0  0
    3.9817   -8.6717   17.2117 He  0  0  0  0  0  0  0  0  0  0  0  0
    2.9467  -11.0418   17.3515 He  0  0  0  0  0  0  0  0  0  0  0  0
  1  4  1  0
  1 10  3  0
  1 15  2  0
  1 20  2  0
  1 22  3  0
  1 23  3  0
  1 25  4  0
  2  3  1  0
  2  6  2  0
  2  8  4  0
  2 15  4  0
  2 19  3  0
  2 22  2  0
  2 23  4  0
  2 24  2  0
  3  5  2  0
  3  6  3  0
  3  7  1  0
  3 12  2  0
  3 13  4  0
  3 16  2  0
  3 19  1  0
  3 21  1  0
  3 24  4  0
  4  9  3  0
  4 20  3  0
  4 22  2  0
  4 23  3  0
  5  7  2  0
  5 16  3  0
  5 17  1  0
  5 21  4  0
  5 23  2  0
  5 25  4  0
  5 26  3  0
  6 13  4  0
  6 16  4  0
  6 20  2  0
  7  9  1  0
  7 10  4  0
  7 12  1  0
  7 15  2  0
  7 22  1  0
  8 25  1  0
  8 26  1  0
  9 12  3  0
  9 14  3  0
  9 15  4  0
  9 23  1  0
 10 18  4  0
 10 25  3  0
 11 19  3  0
 11 21  4  0
 12 15  1  0
 12 16  1  0
 12 20  4  0
 12 22  4  0
 12 23  2  0
 12 24  1  0
 12 25  4  0
 12 26  3  0
 13 14  1  0
 13 23  4  0
 13 25  1  0
 14 25  1  0
 14 26  2  0
 15 19  4  0
 15 20  1  0
 15 23  4  0
 16 26  4  0
 17 21  1  0
 17 22  4  0
 17 25  1  0
 18 19  4  0
 18 24  4  0
 18 26  3  0
 21 25  2  0
 22 24  1  0
 22 25  4  0
 22 26  1  0
 23 25  4  0
 24 25  2  0
M  END
$$$$

 Created by Python create_sdf_string function

 34 36  0  0  0  0  0  0  0  0999 V2000
    7.9167   -2.6840   26.4291 C   0  0  0  0  0  0  0  0  0  0  0  0
    9.9579   -3.3718   26.5851 C   0  0  0  0  0  0  0  0  0  0  0  0
    9.9560   -5.3516   18.3582 C   0  0  0  0  0  0  0  0  0  0  0  0
    1.6433   -9.5895   16.3562 N   0  0  0  0  0  0  0  0  0  0  0  0
    6.8545   -6.8849   15.6443 C   0  0  0  0  0  0  0  0  0  0  0  0
    7.7176   -8.4833   17.1956 C   0  0  0  0  0  0  0  0  0  0  0  0
    2.1865  -10.8042   18.3940 C   0  0  0  0  0  0  0  0  0  0  0  0
   10.7560   -3.7464   22.5547 N   0  0  0  0  0  0  0  0  0  0  0  0
   10.5564   -5.4482   20.0805 C   0  0  0  0  0  0  0  0  0  0  0  0
    6.6970   -8.9934   17.3109 N   0  0  0  0  0  0  0  0  0  0  0  0
    8.5797   -6.7203   17.0957 C   0  0  0  0  0  0  0  0  0  0  0  0
   11.5228   -3.6935   24.9563 C   0  0  0  0  0  0  0  0  0  0  0  0
    8.5020   -8.4563   17.1896 C   0  0  0  0  0  0  0  0  0  0  0  0
   10.7191   -3.5187   18.1977 C   0  0  0  0  0  0  0  0  0  0  0  0
    9.6827   -6.5576   18.4640 N   0  0  0  0  0  0  0  0  0  0  0  0
    1.3627  -10.3338   17.3533 C   0  0  0  0  0  0  0  0  0  0  0  0
    4.9947   -8.2619   15.7379 N   0  0  0  0  0  0  0  0  0  0  0  0
   11.1781   -3.5646   26.2454 C   0  0  0  0  0  0  0  0  0  0  0  0
    7.8593   -6.3636   16.4286 C   0  0  0  0  0  0  0  0  0  0  0  0
   10.9850   -3.3341   19.3656 C   0  0  0  0  0  0  0  0  0  0  0  0
    6.2334   -8.0247   16.2305 C   0  0  0  0  0  0  0  0  0  0  0  0
   10.5456   -3.4474   24.0154 C   0  0  0  0  0  0  0  0  0  0  0  0
    9.3290   -2.9034   24.3534 C   0  0  0  0  0  0  0  0  0  0  0  0
    1.6220  -11.4824   19.3658 N   0  0  0  0  0  0  0  0  0  0  0  0
    9.0355   -2.9476   25.7178 C   0  0  0  0  0  0  0  0  0  0  0  0
   11.4470   -3.9330   21.7290 C   0  0  0  0  0  0  0  0  0  0  0  0
    0.1496  -10.9807   17.7399 C   0  0  0  0  0  0  0  0  0  0  0  0
    9.6286   -5.3167   17.1220 C   0  0  0  0  0  0  0  0  0  0  0  0
    2.7829   -8.8999   15.7860 C   0  0  0  0  0  0  0  0  0  0  0  0
    0.3373  -11.6250   18.8768 N   0  0  0  0  0  0  0  0  0  0  0  0
    4.0429   -8.9791   16.4184 C   0  0  0  0  0  0  0  0  0  0  0  0
    4.0273   -9.5990   17.3616 C   0  0  0  0  0  0  0  0  0  0  0  0
    3.0361  -10.3467   18.0123 C   0  0  0  0  0  0  0  0  0  0  0  0
   10.9379   -4.2385   20.3062 C   0  0  0  0  0  0  0  0  0  0  0  0
  1 25  1  0
  2 18  4  0
  2 25  4  0
  3  9  4  0
  3 14  4  0
  3 15  4  0
  3 28  1  0
  4 16  4  0
  4 29  4  0
  5 19  4  0
  5 21  4  0
  6 10  4  0
  6 13  1  0
  7 16  4  0
  7 24  4  0
  7 33  4  0
  8 22  1  0
  8 26  1  0
  9 34  4  0
 10 21  4  0
 11 19  4  0
 12 18  4  0
 12 22  4  0
 14 20  4  0
 16 27  4  0
 17 21  1  0
 17 31  1  0
 20 34  4  0
 22 23  4  0
 23 25  4  0
 24 30  4  0
 26 34  1  0
 27 30  4  0
 29 31  4  0
 31 32  4  0
 32 33  4  0
M  END
$$$$

 Created by Python create_sdf_string function

 34 85  0  0  0  0  0  0  0  0999 V2000
    8.1071   -3.4690   26.3253 C   0  0  0  0  0  0  0  0  0  0  0  0
   10.4444   -3.6757   26.3328 C   0  0  0  0  0  0  0  0  0  0  0  0
    9.7226   -5.5697   18.3857 C   0  0  0  0  0  0  0  0  0  0  0  0
    6.7575   -7.0937   16.3860 F   0  0  0  0  0  0  0  0  0  0  0  0
    1.6188  -10.9041   17.8592 C   0  0  0  0  0  0  0  0  0  0  0  0
   10.8750   -3.3371   22.4009 N   0  0  0  0  0  0  0  0  0  0  0  0
   10.6423   -5.4982   20.3600 C   0  0  0  0  0  0  0  0  0  0  0  0
    6.8198   -8.9792   16.4012 N   0  0  0  0  0  0  0  0  0  0  0  0
    9.3140   -6.6461   16.7582 C   0  0  0  0  0  0  0  0  0  0  0  0
    8.3140   -8.6726   16.1505 C   0  0  0  0  0  0  0  0  0  0  0  0
   10.6763   -3.4934   17.9548 C   0  0  0  0  0  0  0  0  0  0  0  0
    8.9485   -7.2416   17.8868 C   0  0  0  0  0  0  0  0  0  0  0  0
    1.0294   -9.9172   15.8397 I   0  0  0  0  0  0  0  0  0  0  0  0
    4.9279   -9.7743   15.0389 N   0  0  0  0  0  0  0  0  0  0  0  0
   11.3979   -3.3909   19.2870 C   0  0  0  0  0  0  0  0  0  0  0  0
    6.0523   -7.6117   16.2783 C   0  0  0  0  0  0  0  0  0  0  0  0
   11.6347   -4.1545   23.6512 C   0  0  0  0  0  0  0  0  0  0  0  0
    9.1518   -3.2623   24.1666 C   0  0  0  0  0  0  0  0  0  0  0  0
    1.5068  -11.4408   19.4968 N   0  0  0  0  0  0  0  0  0  0  0  0
    8.5657   -3.2682   25.9938 S   0  0  0  0  0  0  0  0  0  0  0  0
   11.2835   -3.8166   21.6104 N   0  0  0  0  0  0  0  0  0  0  0  0
   -0.0974  -11.3421   17.5504 C   0  0  0  0  0  0  0  0  0  0  0  0
   10.1147   -5.6245   17.9506 P   0  0  0  0  0  0  0  0  0  0  0  0
    2.9426   -9.1143   15.9849 C   0  0  0  0  0  0  0  0  0  0  0  0
    4.8023   -8.4053   15.6099 I   0  0  0  0  0  0  0  0  0  0  0  0
    2.3855   -9.6590   16.6418 C   0  0  0  0  0  0  0  0  0  0  0  0
   10.8121   -3.9276   20.3956 C   0  0  0  0  0  0  0  0  0  0  0  0
    0.6963   -9.9284   17.2083 He  0  0  0  0  0  0  0  0  0  0  0  0
    7.0815   -8.3392   16.6888 He  0  0  0  0  0  0  0  0  0  0  0  0
   10.8436   -4.4947   24.8660 He  0  0  0  0  0  0  0  0  0  0  0  0
   10.9550   -3.9513   25.6590 He  0  0  0  0  0  0  0  0  0  0  0  0
    7.2672   -6.1526   16.6234 He  0  0  0  0  0  0  0  0  0  0  0  0
    0.3173  -10.1358   19.2498 He  0  0  0  0  0  0  0  0  0  0  0  0
    2.4146   -9.6294   17.1708 He  0  0  0  0  0  0  0  0  0  0  0  0
  1  4  1  0
  1 13  4  0
  1 16  2  0
  1 20  2  0
  1 25  1  0
  1 27  3  0
  2 12  4  0
  2 17  3  0
  2 18  4  0
  2 20  4  0
  2 23  3  0
  3  7  4  0
  3 11  3  0
  3 16  3  0
  3 25  1  0
  3 26  1  0
  4  5  3  0
  4  6  4  0
  4 16  4  0
  4 18  1  0
  4 23  4  0
  5  6  4  0
  5 10  4  0
  5 13  4  0
  5 19  4  0
  5 23  1  0
  5 24  4  0
  6  8  1  0
  6 11  1  0
  6 12  3  0
  6 14  3  0
  6 17  1  0
  6 21  3  0
  6 27  2  0
  7 14  3  0
  7 27  4  0
  8 14  4  0
  8 16  4  0
  9 11  4  0
  9 19  1  0
  9 20  2  0
  9 23  1  0
 10 14  1  0
 10 16  3  0
 10 21  3  0
 11 15  4  0
 11 23  2  0
 11 24  4  0
 12 14  1  0
 12 16  1  0
 12 17  1  0
 12 19  3  0
 12 21  3  0
 12 24  3  0
 12 25  4  0
 13 16  1  0
 13 17  4  0
 13 20  2  0
 13 22  1  0
 14 15  3  0
 14 16  1  0
 14 21  1  0
 14 26  2  0
 14 27  3  0
 15 16  2  0
 15 18  3  0
 15 23  2  0
 15 26  4  0
 15 27  4  0
 16 20  3  0
 16 25  2  0
 16 26  1  0
 17 18  4  0
 17 21  1  0
 18 27  3  0
 19 25  4  0
 20 22  3  0
 20 24  1  0
 20 27  2  0
 21 25  3  0
 21 27  1  0
 23 24  1  0
 24 25  4  0
 24 27  3  0
 25 26  4  0
M  END
$$$$

 Created by Python create_sdf_string function

 34 35  0  0  0  0  0  0  0  0999 V2000
    8.1629   -3.1375   26.4258 C   0  0  0  0  0  0  0  0  0  0  0  0
   10.1163   -3.9423   26.4053 C   0  0  0  0  0  0  0  0  0  0  0  0
   10.1033   -5.9097   19.0713 C   0  0  0  0  0  0  0  0  0  0  0  0
    0.6550  -10.2335   16.9699 C   0  0  0  0  0  0  0  0  0  0  0  0
    6.7041   -6.8335   16.3341 C   0  0  0  0  0  0  0  0  0  0  0  0
    7.7767   -8.3011   16.7277 C   0  0  0  0  0  0  0  0  0  0  0  0
    2.1862  -10.5743   18.2449 C   0  0  0  0  0  0  0  0  0  0  0  0
   11.0592   -3.4351   22.4861 N   0  0  0  0  0  0  0  0  0  0  0  0
   10.5173   -5.4310   20.2396 C   0  0  0  0  0  0  0  0  0  0  0  0
    6.2934   -9.1854   16.0260 N   0  0  0  0  0  0  0  0  0  0  0  0
    9.1970   -5.7071   16.8543 C   0  0  0  0  0  0  0  0  0  0  0  0
   11.2482   -4.3459   24.7200 C   0  0  0  0  0  0  0  0  0  0  0  0
    8.2588   -8.4301   16.5921 C   0  0  0  0  0  0  0  0  0  0  0  0
   10.6151   -3.8331   18.0280 C   0  0  0  0  0  0  0  0  0  0  0  0
    8.9753   -7.6762   17.4972 C   0  0  0  0  0  0  0  0  0  0  0  0
    0.7723   -9.8516   15.9364 C   0  0  0  0  0  0  0  0  0  0  0  0
    5.1973   -9.7688   15.8355 N   0  0  0  0  0  0  0  0  0  0  0  0
   11.0408   -4.3875   25.8238 C   0  0  0  0  0  0  0  0  0  0  0  0
    7.7701   -6.1907   16.5616 C   0  0  0  0  0  0  0  0  0  0  0  0
   11.0017   -3.3883   19.2286 C   0  0  0  0  0  0  0  0  0  0  0  0
    6.0026   -7.8618   16.2337 C   0  0  0  0  0  0  0  0  0  0  0  0
   10.6621   -3.5530   23.8793 C   0  0  0  0  0  0  0  0  0  0  0  0
    9.6010   -2.8204   24.2500 C   0  0  0  0  0  0  0  0  0  0  0  0
    1.4510  -11.1498   19.3223 N   0  0  0  0  0  0  0  0  0  0  0  0
    9.1141   -3.2706   25.8732 C   0  0  0  0  0  0  0  0  0  0  0  0
   11.3113   -3.7247   21.6668 N   0  0  0  0  0  0  0  0  0  0  0  0
   -0.1742  -10.7041   17.6730 C   0  0  0  0  0  0  0  0  0  0  0  0
    9.9808   -5.2249   17.9712 C   0  0  0  0  0  0  0  0  0  0  0  0
    3.0637   -9.1311   16.3016 C   0  0  0  0  0  0  0  0  0  0  0  0
    0.2014  -11.2333   18.9702 C   0  0  0  0  0  0  0  0  0  0  0  0
    4.3616   -8.1198   16.1282 C   0  0  0  0  0  0  0  0  0  0  0  0
    3.1397   -9.2378   16.1159 C   0  0  0  0  0  0  0  0  0  0  0  0
    2.4683   -9.8954   17.2399 C   0  0  0  0  0  0  0  0  0  0  0  0
   10.9169   -4.1610   20.2988 C   0  0  0  0  0  0  0  0  0  0  0  0
  1 25  1  0
  2 18  4  0
  2 25  4  0
  3  9  4  0
  3 28  4  0
  4 16  4  0
  4 27  4  0
  5 19  1  0
  5 21  4  0
  6 13  1  0
  7 24  4  0
  7 33  4  0
  8 22  1  0
  8 26  2  0
  9 34  4  0
 10 17  4  0
 10 21  4  0
 11 19  1  0
 11 28  1  0
 12 18  4  0
 12 22  4  0
 13 15  1  0
 14 20  4  0
 14 28  4  0
 20 34  4  0
 21 31  4  0
 22 23  4  0
 23 25  4  0
 24 30  4  0
 26 34  1  0
 27 30  4  0
 29 31  4  0
 29 32  1  0
 29 33  4  0
 31 32  4  0
M  END
$$$$

 Created by Python create_sdf_string function

 34 85  0  0  0  0  0  0  0  0999 V2000
    8.7707   -3.7591   24.8298 C   0  0  0  0  0  0  0  0  0  0  0  0
   10.4088   -3.6332   26.4405 C   0  0  0  0  0  0  0  0  0  0  0  0
    0.6345   -9.2997   16.7968 C   0  0  0  0  0  0  0  0  0  0  0  0
    6.2469   -6.2839   16.1985 O   0  0  0  0  0  0  0  0  0  0  0  0
    7.4064   -8.3272   17.4457 Cl  0  0  0  0  0  0  0  0  0  0  0  0
    2.5423  -10.8758   18.3764 C   0  0  0  0  0  0  0  0  0  0  0  0
   11.3252   -3.4417   22.1342 N   0  0  0  0  0  0  0  0  0  0  0  0
   10.3823   -5.3037   20.3346 C   0  0  0  0  0  0  0  0  0  0  0  0
   12.6705   -5.0194   25.4949 C   0  0  0  0  0  0  0  0  0  0  0  0
    8.4303   -7.5911   15.6986 C   0  0  0  0  0  0  0  0  0  0  0  0
   10.8882   -3.9943   17.7878 C   0  0  0  0  0  0  0  0  0  0  0  0
    8.5196   -8.9752   17.4611 C   0  0  0  0  0  0  0  0  0  0  0  0
    7.3417   -6.6761   16.5584 C   0  0  0  0  0  0  0  0  0  0  0  0
   11.0366   -3.4543   19.4503 C   0  0  0  0  0  0  0  0  0  0  0  0
    6.0847   -7.9923   16.5279 C   0  0  0  0  0  0  0  0  0  0  0  0
    9.9459   -2.4246   24.3668 C   0  0  0  0  0  0  0  0  0  0  0  0
    1.7529  -11.1472   19.6966 N   0  0  0  0  0  0  0  0  0  0  0  0
    9.2693   -3.2782   25.7348 C   0  0  0  0  0  0  0  0  0  0  0  0
    0.1066  -10.2820   17.7598 C   0  0  0  0  0  0  0  0  0  0  0  0
   10.6913   -5.4528   18.2166 C   0  0  0  0  0  0  0  0  0  0  0  0
    3.0795   -9.5141   15.9158 C   0  0  0  0  0  0  0  0  0  0  0  0
   -0.2311  -11.8137   19.0817 C   0  0  0  0  0  0  0  0  0  0  0  0
    3.5900   -7.1659   16.6999 C   0  0  0  0  0  0  0  0  0  0  0  0
    3.2292   -9.5170   15.8792 C   0  0  0  0  0  0  0  0  0  0  0  0
    2.6636   -9.4290   15.9535 C   0  0  0  0  0  0  0  0  0  0  0  0
   10.7508   -4.0377   20.3595 C   0  0  0  0  0  0  0  0  0  0  0  0
    9.4493   -6.1213   19.4788 He  0  0  0  0  0  0  0  0  0  0  0  0
    6.0349   -8.9680   15.8029 He  0  0  0  0  0  0  0  0  0  0  0  0
    9.1222   -5.6207   16.9384 He  0  0  0  0  0  0  0  0  0  0  0  0
    1.3431   -9.6705   15.3878 He  0  0  0  0  0  0  0  0  0  0  0  0
    5.6746   -9.3888   15.9944 He  0  0  0  0  0  0  0  0  0  0  0  0
   10.9051   -3.9118   26.2034 He  0  0  0  0  0  0  0  0  0  0  0  0
   11.7194   -4.3343   24.7566 He  0  0  0  0  0  0  0  0  0  0  0  0
   11.5537   -3.3698   21.9041 He  0  0  0  0  0  0  0  0  0  0  0  0
  1  5  1  0
  1  7  4  0
  1 14  4  0
  1 18  4  0
  2  8  4  0
  2  9  4  0
  2 10  4  0
  2 13  1  0
  2 14  1  0
  2 23  2  0
  2 25  4  0
  3  5  3  0
  3  7  2  0
  3  9  3  0
  3 17  4  0
  3 18  4  0
  3 19  4  0
  3 26  3  0
  4  7  1  0
  4 13  1  0
  4 14  2  0
  4 15  4  0
  4 16  2  0
  4 19  1  0
  4 20  4  0
  5  6  2  0
  5 10  3  0
  5 11  3  0
  5 17  2  0
  5 18  2  0
  5 20  4  0
  6 14  3  0
  6 17  4  0
  6 22  4  0
  7 12  4  0
  7 13  4  0
  7 16  4  0
  7 22  2  0
  7 26  3  0
  8 10  2  0
  8 20  1  0
  8 22  1  0
  8 26  4  0
  9 10  1  0
  9 13  2  0
  9 22  4  0
 10 12  1  0
 10 15  3  0
 10 19  4  0
 10 23  3  0
 11 14  2  0
 11 20  4  0
 11 21  3  0
 11 24  3  0
 11 26  2  0
 12 21  2  0
 12 22  4  0
 13 16  1  0
 13 17  4  0
 13 21  3  0
 13 26  3  0
 14 16  4  0
 14 18  3  0
 14 23  2  0
 14 24  1  0
 14 26  4  0
 16 20  4  0
 16 23  1  0
 17 22  4  0
 17 23  1  0
 17 24  4  0
 18 24  2  0
 18 25  2  0
 18 26  2  0
 19 21  1  0
 19 22  1  0
 19 24  2  0
 20 21  1  0
 20 23  3  0
 20 25  3  0
 21 24  1  0
 21 25  4  0
 22 25  3  0
 23 24  4  0
 23 25  1  0
M  END
$$$$

 Created by Python create_sdf_string function

 34 29  0  0  0  0  0  0  0  0999 V2000
    9.3720   -3.0821   25.4735 C   0  0  0  0  0  0  0  0  0  0  0  0
   10.7353   -3.9919   26.3677 C   0  0  0  0  0  0  0  0  0  0  0  0
   10.0436   -5.9825   19.2078 C   0  0  0  0  0  0  0  0  0  0  0  0
    0.8661  -10.1579   17.1090 C   0  0  0  0  0  0  0  0  0  0  0  0
    6.6258   -6.3710   16.3678 O   0  0  0  0  0  0  0  0  0  0  0  0
    7.5367   -8.1744   17.4315 C   0  0  0  0  0  0  0  0  0  0  0  0
    2.5132  -10.7565   18.4241 C   0  0  0  0  0  0  0  0  0  0  0  0
   11.0598   -3.7281   22.5563 N   0  0  0  0  0  0  0  0  0  0  0  0
   10.5607   -5.2428   20.3597 C   0  0  0  0  0  0  0  0  0  0  0  0
    5.6479   -8.7668   16.0798 C   0  0  0  0  0  0  0  0  0  0  0  0
    9.2545   -5.7268   16.9762 N   0  0  0  0  0  0  0  0  0  0  0  0
   11.7414   -4.4104   25.1922 C   0  0  0  0  0  0  0  0  0  0  0  0
    8.3064   -8.1603   15.9239 C   0  0  0  0  0  0  0  0  0  0  0  0
   10.4797   -3.9779   18.0615 C   0  0  0  0  0  0  0  0  0  0  0  0
    8.6235   -8.2434   17.0732 C   0  0  0  0  0  0  0  0  0  0  0  0
    0.9719   -9.4333   15.7450 C   0  0  0  0  0  0  0  0  0  0  0  0
    5.5183   -9.4064   16.0147 C   0  0  0  0  0  0  0  0  0  0  0  0
   11.0679   -4.2017   26.6940 C   0  0  0  0  0  0  0  0  0  0  0  0
    8.0307   -6.2379   16.7402 C   0  0  0  0  0  0  0  0  0  0  0  0
   11.0620   -3.3739   19.1873 C   0  0  0  0  0  0  0  0  0  0  0  0
    6.1100   -7.8110   16.4363 C   0  0  0  0  0  0  0  0  0  0  0  0
   11.5282   -4.1120   24.2308 C   0  0  0  0  0  0  0  0  0  0  0  0
    9.7543   -2.5383   24.0564 C   0  0  0  0  0  0  0  0  0  0  0  0
    1.5351  -11.3492   19.1632 N   0  0  0  0  0  0  0  0  0  0  0  0
    9.3796   -3.0504   25.5450 C   0  0  0  0  0  0  0  0  0  0  0  0
   11.3306   -3.3498   21.6298 C   0  0  0  0  0  0  0  0  0  0  0  0
    0.0212  -10.6053   17.7615 C   0  0  0  0  0  0  0  0  0  0  0  0
    9.9863   -5.2057   18.1364 C   0  0  0  0  0  0  0  0  0  0  0  0
    2.8922   -9.1553   16.2376 C   0  0  0  0  0  0  0  0  0  0  0  0
    0.2134  -11.2701   18.8787 C   0  0  0  0  0  0  0  0  0  0  0  0
    4.2392   -7.5944   16.3035 C   0  0  0  0  0  0  0  0  0  0  0  0
    3.7048   -8.7062   16.2057 C   0  0  0  0  0  0  0  0  0  0  0  0
    2.3761   -9.6536   16.9395 C   0  0  0  0  0  0  0  0  0  0  0  0
   10.9319   -4.0483   20.3403 C   0  0  0  0  0  0  0  0  0  0  0  0
  1 25  4  0
  2 12  4  0
  2 18  1  0
  3  9  4  0
  3 28  4  0
  4 27  4  0
  5 19  1  0
  5 21  1  0
  6 15  1  0
  7 24  4  0
  7 33  4  0
  8 22  1  0
  8 26  1  0
  9 34  4  0
 10 17  4  0
 11 19  1  0
 11 28  1  0
 12 22  4  0
 13 15  1  0
 14 20  4  0
 14 28  4  0
 20 34  4  0
 23 25  4  0
 24 30  4  0
 26 34  1  0
 27 30  4  0
 29 32  1  0
 29 33  4  0
 31 32  4  0
M  END
$$$$

 Created by Python create_sdf_string function

 34 70  0  0  0  0  0  0  0  0999 V2000
    9.3382   -3.2253   25.7119 C   0  0  0  0  0  0  0  0  0  0  0  0
   10.8277   -3.9119   26.7159 C   0  0  0  0  0  0  0  0  0  0  0  0
   10.3635   -6.0351   17.7182 C   0  0  0  0  0  0  0  0  0  0  0  0
    0.7611  -10.3290   16.5064 C   0  0  0  0  0  0  0  0  0  0  0  0
    7.4622   -9.5029   17.8295 P   0  0  0  0  0  0  0  0  0  0  0  0
    2.3104  -10.9875   18.4009 C   0  0  0  0  0  0  0  0  0  0  0  0
   11.1661   -3.7704   22.2499 N   0  0  0  0  0  0  0  0  0  0  0  0
    9.5157   -5.5657   16.7555 N   0  0  0  0  0  0  0  0  0  0  0  0
   11.4174   -3.7702   24.3698 N   0  0  0  0  0  0  0  0  0  0  0  0
    9.0045   -7.8517   16.4063 C   0  0  0  0  0  0  0  0  0  0  0  0
   10.9080   -4.2569   18.2652 C   0  0  0  0  0  0  0  0  0  0  0  0
    8.2908   -8.1601   17.7758 C   0  0  0  0  0  0  0  0  0  0  0  0
    1.1262   -9.3829   17.1508 P   0  0  0  0  0  0  0  0  0  0  0  0
   10.5059   -3.4954   26.6506 C   0  0  0  0  0  0  0  0  0  0  0  0
    8.2941   -6.6563   16.4380 S   0  0  0  0  0  0  0  0  0  0  0  0
    6.5352   -7.9217   16.5865 C   0  0  0  0  0  0  0  0  0  0  0  0
    9.8390   -2.3827   24.3695 C   0  0  0  0  0  0  0  0  0  0  0  0
    1.8538  -11.1783   19.0802 N   0  0  0  0  0  0  0  0  0  0  0  0
    9.9655   -2.9207   25.7731 C   0  0  0  0  0  0  0  0  0  0  0  0
   11.4609   -3.8823   21.8821 C   0  0  0  0  0  0  0  0  0  0  0  0
   -0.0486  -10.4574   17.5167 F   0  0  0  0  0  0  0  0  0  0  0  0
    9.8964   -5.3029   18.3862 C   0  0  0  0  0  0  0  0  0  0  0  0
    3.1414   -9.1080   16.2583 C   0  0  0  0  0  0  0  0  0  0  0  0
    5.0697   -8.2807   15.8213 C   0  0  0  0  0  0  0  0  0  0  0  0
    2.2127  -10.2879   17.5894 C   0  0  0  0  0  0  0  0  0  0  0  0
    6.0700   -7.0576   17.0161 He  0  0  0  0  0  0  0  0  0  0  0  0
   10.5082   -5.3112   20.3324 He  0  0  0  0  0  0  0  0  0  0  0  0
    5.3665   -8.2672   14.8723 He  0  0  0  0  0  0  0  0  0  0  0  0
    4.2927   -8.8099   16.6820 He  0  0  0  0  0  0  0  0  0  0  0  0
   10.6360   -3.2886   19.0180 He  0  0  0  0  0  0  0  0  0  0  0  0
   12.7044   -3.4445   23.3850 He  0  0  0  0  0  0  0  0  0  0  0  0
   -0.0356  -11.9359   19.2708 He  0  0  0  0  0  0  0  0  0  0  0  0
    2.7075   -8.2777   16.1216 He  0  0  0  0  0  0  0  0  0  0  0  0
   11.2054   -4.0657   20.4404 He  0  0  0  0  0  0  0  0  0  0  0  0
  1  4  2  0
  1  7  1  0
  1  8  2  0
  1 11  3  0
  1 13  1  0
  1 14  4  0
  1 20  3  0
  1 23  3  0
  1 25  3  0
  2  3  4  0
  2  5  3  0
  2  8  2  0
  2  9  4  0
  2 14  1  0
  2 15  2  0
  2 22  3  0
  3  7  1  0
  3 12  2  0
  3 16  2  0
  3 17  2  0
  3 18  2  0
  3 21  1  0
  3 22  4  0
  4  5  3  0
  4  8  2  0
  4 14  1  0
  4 17  3  0
  4 18  3  0
  4 19  4  0
  5  6  2  0
  5  9  1  0
  5 11  1  0
  5 12  1  0
  5 15  2  0
  5 17  3  0
  5 20  3  0
  6 15  1  0
  6 18  4  0
  7 10  1  0
  7 19  3  0
  7 20  1  0
  7 24  4  0
  8  9  3  0
  8 15  1  0
  9 11  3  0
  9 13  4  0
  9 16  1  0
  9 24  2  0
 10 12  1  0
 10 17  2  0
 10 20  1  0
 11 13  2  0
 11 20  2  0
 12 13  3  0
 12 21  2  0
 12 24  4  0
 13 14  4  0
 14 16  2  0
 14 17  1  0
 14 20  4  0
 14 22  4  0
 15 20  2  0
 15 22  3  0
 16 23  3  0
 17 19  4  0
 17 21  3  0
 17 22  3  0
 18 19  1  0
 18 21  1  0
 22 23  4  0
M  END
$$$$

 Created by Python create_sdf_string function

 34 36  0  0  0  0  0  0  0  0999 V2000
    9.3434   -2.9761   26.1584 C   0  0  0  0  0  0  0  0  0  0  0  0
   11.2563   -4.0697   26.1222 C   0  0  0  0  0  0  0  0  0  0  0  0
   10.2563   -6.0268   18.8635 C   0  0  0  0  0  0  0  0  0  0  0  0
    0.4981  -10.2320   17.1110 C   0  0  0  0  0  0  0  0  0  0  0  0
    6.8321   -6.6920   16.5347 C   0  0  0  0  0  0  0  0  0  0  0  0
    7.1859   -8.8580   17.2601 C   0  0  0  0  0  0  0  0  0  0  0  0
    2.4403  -10.8721   18.6111 C   0  0  0  0  0  0  0  0  0  0  0  0
   11.4374   -3.7852   22.4317 C   0  0  0  0  0  0  0  0  0  0  0  0
   10.6859   -5.4513   20.1301 C   0  0  0  0  0  0  0  0  0  0  0  0
    5.4760   -8.3442   15.5489 C   0  0  0  0  0  0  0  0  0  0  0  0
    9.3066   -5.8023   16.8093 N   0  0  0  0  0  0  0  0  0  0  0  0
   11.6442   -3.9859   24.8221 C   0  0  0  0  0  0  0  0  0  0  0  0
    8.6608   -7.6398   16.6069 C   0  0  0  0  0  0  0  0  0  0  0  0
   10.3679   -4.0051   17.8822 C   0  0  0  0  0  0  0  0  0  0  0  0
    8.4748   -8.2547   17.4944 C   0  0  0  0  0  0  0  0  0  0  0  0
    2.1329   -9.4588   16.8566 C   0  0  0  0  0  0  0  0  0  0  0  0
    4.3069   -9.1789   17.1949 N   0  0  0  0  0  0  0  0  0  0  0  0
   10.3094   -3.7677   26.5934 C   0  0  0  0  0  0  0  0  0  0  0  0
    8.0458   -6.2125   16.4914 C   0  0  0  0  0  0  0  0  0  0  0  0
   10.8866   -3.4261   19.0917 C   0  0  0  0  0  0  0  0  0  0  0  0
    6.4219   -8.0247   16.4534 C   0  0  0  0  0  0  0  0  0  0  0  0
   11.1594   -3.4507   23.7883 C   0  0  0  0  0  0  0  0  0  0  0  0
   10.0683   -2.5724   23.9908 C   0  0  0  0  0  0  0  0  0  0  0  0
    1.5725  -11.5497   19.3195 N   0  0  0  0  0  0  0  0  0  0  0  0
    9.4144   -2.5222   25.1713 C   0  0  0  0  0  0  0  0  0  0  0  0
   11.3887   -3.7891   21.4369 C   0  0  0  0  0  0  0  0  0  0  0  0
   -0.0986  -10.9974   17.7848 C   0  0  0  0  0  0  0  0  0  0  0  0
   10.0163   -5.2631   17.8903 C   0  0  0  0  0  0  0  0  0  0  0  0
    3.5643   -8.8046   15.7836 C   0  0  0  0  0  0  0  0  0  0  0  0
    0.3621  -11.6662   18.9712 C   0  0  0  0  0  0  0  0  0  0  0  0
    2.5766   -8.6035   16.0518 C   0  0  0  0  0  0  0  0  0  0  0  0
    4.5550   -8.5823   16.4037 C   0  0  0  0  0  0  0  0  0  0  0  0
    2.2264  -10.0577   17.6037 C   0  0  0  0  0  0  0  0  0  0  0  0
   10.9785   -4.2449   20.1763 C   0  0  0  0  0  0  0  0  0  0  0  0
  1 18  4  0
  1 25  4  0
  2 12  4  0
  2 18  4  0
  3  9  4  0
  3 28  4  0
  4 27  4  0
  5 19  1  0
  5 21  1  0
  6 15  1  0
  6 21  1  0
  7 24  4  0
  7 33  4  0
  8 22  1  0
  8 26  3  0
  9 34  4  0
 10 21  1  0
 10 32  1  0
 11 13  1  0
 11 19  1  0
 11 28  1  0
 12 22  4  0
 13 15  1  0
 14 20  4  0
 14 28  4  0
 16 31  4  0
 16 33  1  0
 17 32  4  0
 20 34  4  0
 22 23  4  0
 23 25  4  0
 24 30  4  0
 26 34  1  0
 27 30  4  0
 29 31  4  0
 29 32  4  0
M  END
$$$$

 Created by Python create_sdf_string function

 34 80  0  0  0  0  0  0  0  0999 V2000
   11.3679   -3.5290   25.7917 C   0  0  0  0  0  0  0  0  0  0  0  0
    0.9203  -10.5632   18.0567 F   0  0  0  0  0  0  0  0  0  0  0  0
    7.1891   -6.8521   16.1628 C   0  0  0  0  0  0  0  0  0  0  0  0
    7.8756   -9.6667   16.4061 C   0  0  0  0  0  0  0  0  0  0  0  0
    2.2892  -10.9036   18.8158 C   0  0  0  0  0  0  0  0  0  0  0  0
   11.3651   -4.0420   22.2479 C   0  0  0  0  0  0  0  0  0  0  0  0
   10.2680   -5.2505   20.1924 C   0  0  0  0  0  0  0  0  0  0  0  0
    4.8150   -9.4276   15.5186 I   0  0  0  0  0  0  0  0  0  0  0  0
    9.3967   -5.5580   16.6598 N   0  0  0  0  0  0  0  0  0  0  0  0
   12.1958   -4.9226   25.3353 C   0  0  0  0  0  0  0  0  0  0  0  0
    9.0571   -6.6934   16.3559 C   0  0  0  0  0  0  0  0  0  0  0  0
   10.5945   -4.0392   17.9902 C   0  0  0  0  0  0  0  0  0  0  0  0
    2.8275   -9.2917   16.8399 C   0  0  0  0  0  0  0  0  0  0  0  0
    2.5676   -9.6389   16.4852 N   0  0  0  0  0  0  0  0  0  0  0  0
   10.7766   -3.3766   19.1159 C   0  0  0  0  0  0  0  0  0  0  0  0
    6.6530   -7.9679   16.6060 C   0  0  0  0  0  0  0  0  0  0  0  0
   11.2803   -3.3762   24.1084 C   0  0  0  0  0  0  0  0  0  0  0  0
   10.4942   -2.5059   24.0878 C   0  0  0  0  0  0  0  0  0  0  0  0
    1.7095  -11.5436   19.2398 N   0  0  0  0  0  0  0  0  0  0  0  0
    8.9040   -3.0949   25.2666 C   0  0  0  0  0  0  0  0  0  0  0  0
   11.3241   -3.5901   21.5737 C   0  0  0  0  0  0  0  0  0  0  0  0
    0.1158  -11.1607   18.0378 C   0  0  0  0  0  0  0  0  0  0  0  0
    0.0513  -11.3149   18.2779 C   0  0  0  0  0  0  0  0  0  0  0  0
    4.7762   -8.4842   16.4919 C   0  0  0  0  0  0  0  0  0  0  0  0
    1.9054  -10.2962   18.3139 N   0  0  0  0  0  0  0  0  0  0  0  0
   10.7315   -4.4765   19.8486 C   0  0  0  0  0  0  0  0  0  0  0  0
    9.4155   -4.3417   26.3472 He  0  0  0  0  0  0  0  0  0  0  0  0
   10.8336   -5.8458   18.8365 He  0  0  0  0  0  0  0  0  0  0  0  0
    6.9620   -7.8432   16.9643 He  0  0  0  0  0  0  0  0  0  0  0  0
   10.5377   -3.4832   26.7745 He  0  0  0  0  0  0  0  0  0  0  0  0
    8.7536   -6.0544   16.9361 He  0  0  0  0  0  0  0  0  0  0  0  0
    9.8674   -4.8287   19.1699 He  0  0  0  0  0  0  0  0  0  0  0  0
    3.6666   -8.7373   16.2013 He  0  0  0  0  0  0  0  0  0  0  0  0
    2.6665   -8.9787   15.9344 He  0  0  0  0  0  0  0  0  0  0  0  0
  1 10  4  0
  1 14  2  0
  1 25  2  0
  2  5  4  0
  2 15  3  0
  2 16  3  0
  2 20  1  0
  2 22  4  0
  2 25  2  0
  2 26  3  0
  3 16  3  0
  3 25  1  0
  3 26  3  0
  4  5  4  0
  4 13  1  0
  4 15  2  0
  4 16  2  0
  4 17  3  0
  4 20  1  0
  5  8  3  0
  5 10  3  0
  5 11  4  0
  5 14  3  0
  5 15  4  0
  5 17  4  0
  5 19  4  0
  5 20  3  0
  6 13  3  0
  6 17  4  0
  6 21  3  0
  6 22  2  0
  7 17  2  0
  7 22  3  0
  7 24  4  0
  7 26  4  0
  8 16  3  0
  8 22  4  0
  8 24  1  0
  8 25  1  0
  9 11  4  0
 10 14  1  0
 10 17  4  0
 10 18  2  0
 10 19  4  0
 10 22  1  0
 11 12  3  0
 11 20  2  0
 11 21  1  0
 11 22  1  0
 11 26  3  0
 12 14  3  0
 12 15  4  0
 12 17  4  0
 12 23  3  0
 13 14  3  0
 13 15  4  0
 13 17  2  0
 13 20  1  0
 13 21  2  0
 13 24  4  0
 13 25  1  0
 14 15  3  0
 14 16  1  0
 14 24  4  0
 14 25  4  0
 15 24  2  0
 15 26  3  0
 16 23  4  0
 17 18  4  0
 17 22  2  0
 17 23  3  0
 17 25  3  0
 18 21  2  0
 19 24  1  0
 21 22  2  0
 21 26  3  0
 22 23  4  0
 22 25  2  0
 23 25  2  0
 23 26  4  0
M  END
$$$$

 Created by Python create_sdf_string function

 34 37  0  0  0  0  0  0  0  0999 V2000
    9.7547   -3.6387   26.5414 C   0  0  0  0  0  0  0  0  0  0  0  0
   11.1961   -4.1196   25.9834 C   0  0  0  0  0  0  0  0  0  0  0  0
   10.2680   -5.9992   18.9748 C   0  0  0  0  0  0  0  0  0  0  0  0
    0.7812  -10.5783   17.6090 C   0  0  0  0  0  0  0  0  0  0  0  0
    7.0952   -6.6486   16.0953 C   0  0  0  0  0  0  0  0  0  0  0  0
    7.6254   -8.7484   16.2776 C   0  0  0  0  0  0  0  0  0  0  0  0
    2.2272  -11.2334   19.0348 C   0  0  0  0  0  0  0  0  0  0  0  0
   11.4686   -4.1350   22.3188 C   0  0  0  0  0  0  0  0  0  0  0  0
   10.7452   -5.4234   20.2374 C   0  0  0  0  0  0  0  0  0  0  0  0
    5.3817   -9.1130   16.0630 C   0  0  0  0  0  0  0  0  0  0  0  0
    9.4178   -5.5740   16.7250 N   0  0  0  0  0  0  0  0  0  0  0  0
   11.7540   -4.1733   24.8697 C   0  0  0  0  0  0  0  0  0  0  0  0
    8.7374   -7.3378   16.7759 C   0  0  0  0  0  0  0  0  0  0  0  0
   10.3599   -3.8953   17.9332 C   0  0  0  0  0  0  0  0  0  0  0  0
    6.9408   -8.0661   16.9983 C   0  0  0  0  0  0  0  0  0  0  0  0
    3.3753   -9.4104   16.9442 C   0  0  0  0  0  0  0  0  0  0  0  0
    2.8232   -9.3460   16.8806 N   0  0  0  0  0  0  0  0  0  0  0  0
   10.4097   -3.9798   27.0300 C   0  0  0  0  0  0  0  0  0  0  0  0
    8.4630   -6.1637   16.5588 C   0  0  0  0  0  0  0  0  0  0  0  0
   10.9046   -3.2764   19.0969 C   0  0  0  0  0  0  0  0  0  0  0  0
    6.4906   -7.9614   16.4934 C   0  0  0  0  0  0  0  0  0  0  0  0
   11.0351   -3.6731   23.8590 C   0  0  0  0  0  0  0  0  0  0  0  0
    9.9243   -2.9005   24.0986 C   0  0  0  0  0  0  0  0  0  0  0  0
    1.3511  -11.8206   19.5960 N   0  0  0  0  0  0  0  0  0  0  0  0
    9.2886   -2.9045   25.2782 C   0  0  0  0  0  0  0  0  0  0  0  0
   11.1646   -3.4369   21.4406 C   0  0  0  0  0  0  0  0  0  0  0  0
   -0.0270  -11.2701   18.0916 C   0  0  0  0  0  0  0  0  0  0  0  0
   10.0755   -5.1508   17.9343 C   0  0  0  0  0  0  0  0  0  0  0  0
    3.5019   -8.1932   15.7205 C   0  0  0  0  0  0  0  0  0  0  0  0
    0.2151  -11.8168   18.9714 C   0  0  0  0  0  0  0  0  0  0  0  0
    2.4793   -8.5104   15.8846 C   0  0  0  0  0  0  0  0  0  0  0  0
    4.4158   -8.8381   16.3957 C   0  0  0  0  0  0  0  0  0  0  0  0
    1.8937  -10.3893   17.8854 C   0  0  0  0  0  0  0  0  0  0  0  0
   10.9047   -4.1203   20.2226 C   0  0  0  0  0  0  0  0  0  0  0  0
  1  2  4  0
  1 18  1  0
  1 25  4  0
  2 12  4  0
  2 18  1  0
  3  9  4  0
  3 28  4  0
  4 27  4  0
  4 33  4  0
  5 19  1  0
  5 21  1  0
  6 15  1  0
  7 24  4  0
  7 33  4  0
  8 22  1  0
  8 26  1  0
  9 34  4  0
 10 21  1  0
 10 32  1  0
 11 19  1  0
 11 28  1  0
 12 22  4  0
 13 19  1  0
 14 20  4  0
 14 28  4  0
 15 21  1  0
 16 17  4  0
 16 32  4  0
 17 31  4  0
 20 34  4  0
 22 23  4  0
 23 25  4  0
 24 30  4  0
 26 34  1  0
 27 30  4  0
 29 31  4  0
 29 32  4  0
M  END
$$$$

 Created by Python create_sdf_string function

 34 81  0  0  0  0  0  0  0  0999 V2000
   11.0371   -3.9991   26.3116 C   0  0  0  0  0  0  0  0  0  0  0  0
   10.4663   -5.1542   18.1866 S   0  0  0  0  0  0  0  0  0  0  0  0
    2.5125  -10.0949   17.5145 C   0  0  0  0  0  0  0  0  0  0  0  0
    7.0546   -6.3898   15.4339 C   0  0  0  0  0  0  0  0  0  0  0  0
    8.0752   -7.7608   15.6406 C   0  0  0  0  0  0  0  0  0  0  0  0
    2.3892  -11.4462   18.8447 Se  0  0  0  0  0  0  0  0  0  0  0  0
   11.4498   -4.1440   21.9703 C   0  0  0  0  0  0  0  0  0  0  0  0
    9.4560   -5.7096   16.8839 N   0  0  0  0  0  0  0  0  0  0  0  0
    7.6987   -7.2108   17.4236 C   0  0  0  0  0  0  0  0  0  0  0  0
    9.9206   -4.1556   17.9858 C   0  0  0  0  0  0  0  0  0  0  0  0
    2.6487   -8.9626   16.2530 N   0  0  0  0  0  0  0  0  0  0  0  0
   10.9976   -3.5047   27.2759 C   0  0  0  0  0  0  0  0  0  0  0  0
    8.4386   -6.1888   15.9567 C   0  0  0  0  0  0  0  0  0  0  0  0
   10.9619   -3.2235   19.2214 C   0  0  0  0  0  0  0  0  0  0  0  0
    6.4402   -7.8440   16.4661 C   0  0  0  0  0  0  0  0  0  0  0  0
   12.0248   -3.6278   24.6832 C   0  0  0  0  0  0  0  0  0  0  0  0
   10.1731   -2.6569   24.1689 C   0  0  0  0  0  0  0  0  0  0  0  0
    1.0405  -11.9322   19.7913 N   0  0  0  0  0  0  0  0  0  0  0  0
   10.0828   -3.7213   24.6789 C   0  0  0  0  0  0  0  0  0  0  0  0
   10.9594   -3.4135   21.7750 C   0  0  0  0  0  0  0  0  0  0  0  0
   -0.1095  -10.8577   17.6081 C   0  0  0  0  0  0  0  0  0  0  0  0
    3.2736   -8.2698   15.8675 C   0  0  0  0  0  0  0  0  0  0  0  0
    0.4387  -12.2838   19.6259 C   0  0  0  0  0  0  0  0  0  0  0  0
    3.2604   -8.4049   15.4558 C   0  0  0  0  0  0  0  0  0  0  0  0
    3.6004   -8.2636   17.1392 C   0  0  0  0  0  0  0  0  0  0  0  0
    2.2762  -10.8282   17.7544 C   0  0  0  0  0  0  0  0  0  0  0  0
   10.9248   -3.5223   20.5406 C   0  0  0  0  0  0  0  0  0  0  0  0
   10.1178   -2.5060   26.0027 He  0  0  0  0  0  0  0  0  0  0  0  0
   10.9572   -5.0753   20.4987 He  0  0  0  0  0  0  0  0  0  0  0  0
    5.2739   -8.6561   15.7331 He  0  0  0  0  0  0  0  0  0  0  0  0
   10.8249   -4.3802   25.4712 He  0  0  0  0  0  0  0  0  0  0  0  0
    6.2229   -7.8950   17.1586 He  0  0  0  0  0  0  0  0  0  0  0  0
    3.7250   -9.7873   17.0316 He  0  0  0  0  0  0  0  0  0  0  0  0
    9.0859   -5.3184   18.0498 He  0  0  0  0  0  0  0  0  0  0  0  0
  1  9  1  0
  1 10  2  0
  1 12  1  0
  1 25  4  0
  2  7  4  0
  2  8  3  0
  2 10  1  0
  2 15  1  0
  2 17  1  0
  2 18  4  0
  2 19  3  0
  3  5  3  0
  3  8  2  0
  3 13  2  0
  3 15  4  0
  3 16  3  0
  3 21  4  0
  3 26  4  0
  4  6  1  0
  4 10  2  0
  4 11  3  0
  4 13  1  0
  4 16  3  0
  4 18  2  0
  5 12  2  0
  5 15  1  0
  5 16  1  0
  5 21  2  0
  5 23  1  0
  6 12  1  0
  6 24  2  0
  6 26  4  0
  7  9  4  0
  7 16  1  0
  7 20  1  0
  8 14  4  0
  8 17  3  0
  8 22  2  0
  8 25  1  0
  8 27  2  0
  9 11  3  0
  9 13  1  0
  9 20  2  0
 10 24  1  0
 11 12  2  0
 11 13  4  0
 11 15  3  0
 11 17  4  0
 11 18  2  0
 11 20  4  0
 11 26  3  0
 12 14  4  0
 12 24  3  0
 13 17  4  0
 13 20  4  0
 13 22  2  0
 14 20  3  0
 14 22  3  0
 14 26  4  0
 14 27  4  0
 16 17  4  0
 16 18  1  0
 16 21  2  0
 16 26  2  0
 17 19  3  0
 17 21  4  0
 17 24  4  0
 17 26  1  0
 19 21  2  0
 19 23  1  0
 19 26  4  0
 20 23  3  0
 20 24  3  0
 20 25  4  0
 20 26  4  0
 20 27  3  0
 21 23  1  0
 21 25  2  0
 22 24  4  0
 22 25  4  0
 23 27  4  0
M  END
$$$$

 Created by Python create_sdf_string function

 34 37  0  0  0  0  0  0  0  0999 V2000
    9.8412   -2.8631   26.0547 C   0  0  0  0  0  0  0  0  0  0  0  0
   10.8169   -3.6743   26.2215 C   0  0  0  0  0  0  0  0  0  0  0  0
   10.3103   -5.8785   18.9532 C   0  0  0  0  0  0  0  0  0  0  0  0
    1.7071  -10.4557   17.6950 C   0  0  0  0  0  0  0  0  0  0  0  0
    7.3006   -6.4927   15.5265 C   0  0  0  0  0  0  0  0  0  0  0  0
    7.8331   -8.1702   15.5496 C   0  0  0  0  0  0  0  0  0  0  0  0
    2.4588  -11.4066   19.3363 C   0  0  0  0  0  0  0  0  0  0  0  0
   11.5840   -4.2859   22.5171 C   0  0  0  0  0  0  0  0  0  0  0  0
   10.8447   -5.3123   20.2552 C   0  0  0  0  0  0  0  0  0  0  0  0
    5.2263   -8.3626   16.1664 C   0  0  0  0  0  0  0  0  0  0  0  0
    9.1624   -5.6958   17.0705 N   0  0  0  0  0  0  0  0  0  0  0  0
   11.4379   -4.2553   25.1762 C   0  0  0  0  0  0  0  0  0  0  0  0
    7.8169   -7.1114   17.6336 C   0  0  0  0  0  0  0  0  0  0  0  0
   10.1044   -3.9509   18.0268 C   0  0  0  0  0  0  0  0  0  0  0  0
    6.5340   -8.0259   17.2252 C   0  0  0  0  0  0  0  0  0  0  0  0
    3.9541   -9.4919   17.4311 N   0  0  0  0  0  0  0  0  0  0  0  0
    2.0294   -9.2980   16.4220 N   0  0  0  0  0  0  0  0  0  0  0  0
   11.1038   -3.9353   27.5703 C   0  0  0  0  0  0  0  0  0  0  0  0
    8.2909   -6.0378   16.4124 C   0  0  0  0  0  0  0  0  0  0  0  0
   10.7206   -3.3041   19.2330 C   0  0  0  0  0  0  0  0  0  0  0  0
    6.7484   -8.1740   16.0704 C   0  0  0  0  0  0  0  0  0  0  0  0
   11.1763   -3.7867   23.8730 C   0  0  0  0  0  0  0  0  0  0  0  0
   10.1746   -2.6787   23.9341 C   0  0  0  0  0  0  0  0  0  0  0  0
    1.2666  -12.0188   19.6601 C   0  0  0  0  0  0  0  0  0  0  0  0
    9.5902   -2.3417   24.8624 C   0  0  0  0  0  0  0  0  0  0  0  0
   11.2933   -3.4713   21.5966 C   0  0  0  0  0  0  0  0  0  0  0  0
    0.3871  -11.0090   17.8180 C   0  0  0  0  0  0  0  0  0  0  0  0
    9.8550   -5.1350   18.0164 C   0  0  0  0  0  0  0  0  0  0  0  0
    3.4609   -8.0963   15.6998 C   0  0  0  0  0  0  0  0  0  0  0  0
    0.2657  -11.8072   18.9366 C   0  0  0  0  0  0  0  0  0  0  0  0
    2.8756   -8.3596   15.5372 C   0  0  0  0  0  0  0  0  0  0  0  0
    4.0557   -8.8478   16.6832 C   0  0  0  0  0  0  0  0  0  0  0  0
    2.2973  -10.7195   18.3165 C   0  0  0  0  0  0  0  0  0  0  0  0
   10.9239   -3.9853   20.3290 C   0  0  0  0  0  0  0  0  0  0  0  0
  1  2  4  0
  1 25  4  0
  2 12  4  0
  2 18  1  0
  3  9  4  0
  3 28  4  0
  4 27  4  0
  4 33  1  0
  5  6  1  0
  5 19  1  0
  6 21  1  0
  7 24  4  0
  7 33  4  0
  8 22  1  0
  8 26  1  0
  9 34  4  0
 10 15  1  0
 10 21  1  0
 10 32  1  0
 11 19  1  0
 11 28  1  0
 12 22  4  0
 13 15  1  0
 13 19  1  0
 14 20  4  0
 14 28  4  0
 15 21  1  0
 16 32  4  0
 17 31  4  0
 20 34  4  0
 22 23  4  0
 23 25  4  0
 24 30  4  0
 26 34  1  0
 27 30  4  0
 29 31  4  0
 29 32  4  0
M  END
$$$$

 Created by Python create_sdf_string function

 34 94  0  0  0  0  0  0  0  0999 V2000
    9.7257   -2.6314   25.9764 C   0  0  0  0  0  0  0  0  0  0  0  0
   11.2122   -3.8766   26.2914 C   0  0  0  0  0  0  0  0  0  0  0  0
    1.5559  -10.7394   17.3434 C   0  0  0  0  0  0  0  0  0  0  0  0
    6.8681   -6.2688   14.9671 P   0  0  0  0  0  0  0  0  0  0  0  0
    7.7276   -9.3476   15.3371 C   0  0  0  0  0  0  0  0  0  0  0  0
    2.4035  -11.3211   19.3206 C   0  0  0  0  0  0  0  0  0  0  0  0
   11.3582   -4.3628   22.5467 C   0  0  0  0  0  0  0  0  0  0  0  0
   10.9261   -5.3021   20.4373 C   0  0  0  0  0  0  0  0  0  0  0  0
    5.0747   -8.4172   14.8960 C   0  0  0  0  0  0  0  0  0  0  0  0
    9.4168   -5.6246   16.8518 N   0  0  0  0  0  0  0  0  0  0  0  0
   11.5529   -4.2166   24.5665 Se  0  0  0  0  0  0  0  0  0  0  0  0
    8.7736   -7.0132   17.5105 C   0  0  0  0  0  0  0  0  0  0  0  0
   10.4286   -4.2328   18.0703 C   0  0  0  0  0  0  0  0  0  0  0  0
    6.3623   -7.8606   16.5022 N   0  0  0  0  0  0  0  0  0  0  0  0
    1.7013   -9.3025   16.5305 C   0  0  0  0  0  0  0  0  0  0  0  0
   10.8662   -3.4870   27.6505 C   0  0  0  0  0  0  0  0  0  0  0  0
   10.6688   -3.2779   19.0611 C   0  0  0  0  0  0  0  0  0  0  0  0
    6.8209   -8.0908   16.0553 C   0  0  0  0  0  0  0  0  0  0  0  0
   10.2171   -2.5584   24.2977 C   0  0  0  0  0  0  0  0  0  0  0  0
    1.2196  -12.2972   19.6402 C   0  0  0  0  0  0  0  0  0  0  0  0
    9.0660   -1.8545   25.8411 C   0  0  0  0  0  0  0  0  0  0  0  0
   11.4068   -3.4562   21.5988 C   0  0  0  0  0  0  0  0  0  0  0  0
    0.4112  -10.8425   17.5198 C   0  0  0  0  0  0  0  0  0  0  0  0
    3.1690   -8.0053   15.4910 C   0  0  0  0  0  0  0  0  0  0  0  0
    0.3877  -11.0936   19.0885 C   0  0  0  0  0  0  0  0  0  0  0  0
    2.6930   -9.0749   15.8988 F   0  0  0  0  0  0  0  0  0  0  0  0
    3.5268   -8.6074   15.6969 N   0  0  0  0  0  0  0  0  0  0  0  0
    2.2695  -10.1265   18.8830 O   0  0  0  0  0  0  0  0  0  0  0  0
   11.0351   -4.3972   20.1852 C   0  0  0  0  0  0  0  0  0  0  0  0
   10.6445   -6.1596   18.6302 He  0  0  0  0  0  0  0  0  0  0  0  0
    4.5642  -10.1541   18.2680 He  0  0  0  0  0  0  0  0  0  0  0  0
    7.7800   -5.9232   17.0707 He  0  0  0  0  0  0  0  0  0  0  0  0
   11.0472   -3.4127   24.1315 He  0  0  0  0  0  0  0  0  0  0  0  0
    9.2251   -5.5436   17.8712 He  0  0  0  0  0  0  0  0  0  0  0  0
  1  2  1  0
  1  5  4  0
  1  9  4  0
  1 14  3  0
  1 19  1  0
  1 20  2  0
  1 21  1  0
  1 25  4  0
  2  9  1  0
  2 11  4  0
  2 16  1  0
  2 23  2  0
  2 29  4  0
  3  4  3  0
  3  5  3  0
  3  6  2  0
  3  8  2  0
  3 17  3  0
  3 21  3  0
  3 23  4  0
  3 28  1  0
  4  5  1  0
  4  7  3  0
  4 17  2  0
  4 25  1  0
  5  6  3  0
  5 13  3  0
  5 15  3  0
  5 16  4  0
  5 18  1  0
  5 20  1  0
  5 21  3  0
  5 29  1  0
  6 15  3  0
  6 20  4  0
  6 21  4  0
  6 24  4  0
  7 14  1  0
  7 22  1  0
  8 11  3  0
  8 13  4  0
  8 14  4  0
  8 19  3  0
  8 25  4  0
  8 29  2  0
  9 14  1  0
  9 15  4  0
  9 17  1  0
  9 23  1  0
 10 15  3  0
 10 22  4  0
 10 24  2  0
 10 25  1  0
 10 26  3  0
 10 27  2  0
 11 13  3  0
 11 20  1  0
 11 23  4  0
 11 26  2  0
 11 27  4  0
 11 29  4  0
 12 13  2  0
 12 16  3  0
 12 19  3  0
 12 21  4  0
 13 17  4  0
 14 15  2  0
 14 18  1  0
 14 24  3  0
 14 28  1  0
 15 18  1  0
 15 20  3  0
 15 26  3  0
 16 20  2  0
 16 26  3  0
 16 27  3  0
 16 28  4  0
 17 18  2  0
 17 23  2  0
 17 28  4  0
 17 29  1  0
 19 20  4  0
 19 21  4  0
 19 25  1  0
 19 29  2  0
 20 28  2  0
 21 23  1  0
 22 29  1  0
 24 25  2  0
 24 26  1  0
 24 28  4  0
 25 29  4  0
 26 27  2  0
 28 29  2  0
M  END
$$$$

 Created by Python create_sdf_string function

 34 37  0  0  0  0  0  0  0  0999 V2000
    9.8318   -2.6671   26.2251 C   0  0  0  0  0  0  0  0  0  0  0  0
   10.8000   -3.5677   26.2753 C   0  0  0  0  0  0  0  0  0  0  0  0
   10.3553   -6.0479   18.9492 C   0  0  0  0  0  0  0  0  0  0  0  0
    1.5947  -10.2548   17.5663 C   0  0  0  0  0  0  0  0  0  0  0  0
    7.1290   -6.3553   15.5355 C   0  0  0  0  0  0  0  0  0  0  0  0
    7.9006   -8.3803   15.6562 C   0  0  0  0  0  0  0  0  0  0  0  0
    2.5906  -11.3727   19.2568 C   0  0  0  0  0  0  0  0  0  0  0  0
   11.2451   -4.2046   22.6547 C   0  0  0  0  0  0  0  0  0  0  0  0
   10.8285   -5.4634   20.1723 C   0  0  0  0  0  0  0  0  0  0  0  0
    5.0316   -8.3792   15.4697 C   0  0  0  0  0  0  0  0  0  0  0  0
    9.0146   -5.6888   17.0280 N   0  0  0  0  0  0  0  0  0  0  0  0
   11.3771   -4.1423   25.0938 C   0  0  0  0  0  0  0  0  0  0  0  0
    8.3900   -7.7216   17.1660 C   0  0  0  0  0  0  0  0  0  0  0  0
   10.1639   -3.9593   17.9936 C   0  0  0  0  0  0  0  0  0  0  0  0
    6.0267   -8.1233   16.2944 N   0  0  0  0  0  0  0  0  0  0  0  0
    3.9153   -9.9153   17.7143 N   0  0  0  0  0  0  0  0  0  0  0  0
    1.8530   -9.2644   16.4144 C   0  0  0  0  0  0  0  0  0  0  0  0
   11.0412   -3.7998   27.6936 C   0  0  0  0  0  0  0  0  0  0  0  0
    7.9535   -6.0806   16.5133 C   0  0  0  0  0  0  0  0  0  0  0  0
   10.7695   -3.3476   19.1227 C   0  0  0  0  0  0  0  0  0  0  0  0
    7.2181   -8.3826   16.5259 C   0  0  0  0  0  0  0  0  0  0  0  0
   10.8999   -3.5730   23.9658 C   0  0  0  0  0  0  0  0  0  0  0  0
    9.9861   -2.5221   23.9825 C   0  0  0  0  0  0  0  0  0  0  0  0
    1.3798  -11.8699   19.6765 C   0  0  0  0  0  0  0  0  0  0  0  0
    9.4303   -2.1409   25.1555 C   0  0  0  0  0  0  0  0  0  0  0  0
   11.2340   -3.4852   21.5693 C   0  0  0  0  0  0  0  0  0  0  0  0
    0.3638  -10.8011   17.9015 C   0  0  0  0  0  0  0  0  0  0  0  0
    9.8608   -5.2448   17.9718 C   0  0  0  0  0  0  0  0  0  0  0  0
    3.2541   -8.0876   15.5098 C   0  0  0  0  0  0  0  0  0  0  0  0
    0.2825  -11.6341   18.9964 C   0  0  0  0  0  0  0  0  0  0  0  0
    2.5640   -8.8120   16.0237 C   0  0  0  0  0  0  0  0  0  0  0  0
    3.8976   -9.1170   16.6091 N   0  0  0  0  0  0  0  0  0  0  0  0
    2.6904  -10.5543   18.1527 C   0  0  0  0  0  0  0  0  0  0  0  0
   10.9582   -4.1311   20.2467 C   0  0  0  0  0  0  0  0  0  0  0  0
  1  2  4  0
  1 25  4  0
  2 12  4  0
  2 18  1  0
  3  9  4  0
  3 28  4  0
  4 17  4  0
  4 27  4  0
  4 33  4  0
  5 19  1  0
  6 13  1  0
  6 21  1  0
  7 24  4  0
  7 33  4  0
  8 22  1  0
  8 26  1  0
  9 34  4  0
 10 15  1  0
 11 19  1  0
 11 28  1  0
 12 22  4  0
 13 19  1  0
 13 21  1  0
 14 20  4  0
 14 28  4  0
 15 21  1  0
 16 32  4  0
 16 33  4  0
 17 31  4  0
 20 34  4  0
 22 23  4  0
 23 25  4  0
 24 30  4  0
 26 34  1  0
 27 30  4  0
 29 31  1  0
 31 32  4  0
M  END
$$$$

 Created by Python create_sdf_string function

 34 86  0  0  0  0  0  0  0  0999 V2000
    9.6404   -3.5438   26.5434 C   0  0  0  0  0  0  0  0  0  0  0  0
   10.8413   -3.5505   26.4261 B   0  0  0  0  0  0  0  0  0  0  0  0
    1.3609  -10.2520   18.1586 C   0  0  0  0  0  0  0  0  0  0  0  0
    7.5589   -9.2495   15.0244 P   0  0  0  0  0  0  0  0  0  0  0  0
    2.7131  -11.7088   19.0633 C   0  0  0  0  0  0  0  0  0  0  0  0
   10.5687   -5.5064   20.1308 C   0  0  0  0  0  0  0  0  0  0  0  0
    5.9231   -8.0970   16.1314 C   0  0  0  0  0  0  0  0  0  0  0  0
    8.9392   -5.8748   17.2470 N   0  0  0  0  0  0  0  0  0  0  0  0
   10.7470   -4.9278   24.4129 C   0  0  0  0  0  0  0  0  0  0  0  0
   10.2193   -4.1106   17.8079 C   0  0  0  0  0  0  0  0  0  0  0  0
    6.1702   -8.2578   16.5539 N   0  0  0  0  0  0  0  0  0  0  0  0
    4.2712   -9.9582   17.4399 Br  0  0  0  0  0  0  0  0  0  0  0  0
    1.9341   -9.7626   16.2573 N   0  0  0  0  0  0  0  0  0  0  0  0
   10.4798   -3.8722   27.0557 C   0  0  0  0  0  0  0  0  0  0  0  0
    7.8735   -6.1803   16.4678 C   0  0  0  0  0  0  0  0  0  0  0  0
   10.5590   -3.4328   18.9539 C   0  0  0  0  0  0  0  0  0  0  0  0
    7.0092   -8.6585   16.3995 F   0  0  0  0  0  0  0  0  0  0  0  0
   10.8395   -2.3908   24.0445 Cl  0  0  0  0  0  0  0  0  0  0  0  0
    9.9664   -2.2567   24.3811 O   0  0  0  0  0  0  0  0  0  0  0  0
    1.6619  -11.7188   20.1112 C   0  0  0  0  0  0  0  0  0  0  0  0
    9.9769   -1.5569   25.0557 C   0  0  0  0  0  0  0  0  0  0  0  0
   11.2499   -3.5111   21.4004 C   0  0  0  0  0  0  0  0  0  0  0  0
    0.3234  -10.8757   18.1081 C   0  0  0  0  0  0  0  0  0  0  0  0
    8.8653   -4.4836   16.4514 C   0  0  0  0  0  0  0  0  0  0  0  0
    3.4587   -8.1060   15.1172 C   0  0  0  0  0  0  0  0  0  0  0  0
    2.7421   -8.0044   16.5738 C   0  0  0  0  0  0  0  0  0  0  0  0
    3.6335   -7.9848   15.0478 N   0  0  0  0  0  0  0  0  0  0  0  0
    3.4869  -10.1421   17.4386 C   0  0  0  0  0  0  0  0  0  0  0  0
   10.8591   -4.1291   19.9027 C   0  0  0  0  0  0  0  0  0  0  0  0
   10.6582   -6.7817   19.3512 He  0  0  0  0  0  0  0  0  0  0  0  0
    6.6289   -5.6431   15.8811 He  0  0  0  0  0  0  0  0  0  0  0  0
   11.5643   -4.2581   22.4764 He  0  0  0  0  0  0  0  0  0  0  0  0
    8.8486   -7.1093   16.9736 He  0  0  0  0  0  0  0  0  0  0  0  0
    0.2039  -10.9744   19.5931 He  0  0  0  0  0  0  0  0  0  0  0  0
  1  2  4  0
  1 16  2  0
  1 17  2  0
  2  9  4  0
  2 11  1  0
  2 12  4  0
  2 14  1  0
  2 28  3  0
  3  7  1  0
  3 10  1  0
  3 11  2  0
  3 13  4  0
  3 22  3  0
  3 23  3  0
  4  7  4  0
  4 11  2  0
  4 12  3  0
  4 14  1  0
  4 16  2  0
  4 17  1  0
  4 21  1  0
  4 22  2  0
  5  6  3  0
  5 13  4  0
  5 20  1  0
  5 24  3  0
  5 28  2  0
  6 11  3  0
  6 22  1  0
  6 26  4  0
  6 29  4  0
  7 10  1  0
  7 11  1  0
  7 13  4  0
  7 15  3  0
  7 18  4  0
  7 26  4  0
  8 15  1  0
  8 26  1  0
  8 28  4  0
  9 10  4  0
  9 11  3  0
  9 16  4  0
  9 18  3  0
  9 26  4  0
  9 29  4  0
 10 16  1  0
 10 24  4  0
 10 27  1  0
 10 29  1  0
 11 12  2  0
 11 13  3  0
 11 17  1  0
 11 20  4  0
 12 20  2  0
 12 28  4  0
 13 18  2  0
 13 21  1  0
 14 16  3  0
 14 23  3  0
 14 28  2  0
 15 17  2  0
 15 19  3  0
 15 20  2  0
 15 21  3  0
 15 23  2  0
 15 24  4  0
 16 29  4  0
 17 26  3  0
 18 20  1  0
 18 22  3  0
 18 27  3  0
 19 21  4  0
 19 27  3  0
 20 22  1  0
 20 28  3  0
 21 23  4  0
 21 27  4  0
 21 28  3  0
 22 24  4  0
 22 27  4  0
 22 29  1  0
 23 26  3  0
 23 27  2  0
 25 26  3  0
 27 28  3  0
M  END
$$$$

 Created by Python create_sdf_string function

 34 35  0  0  0  0  0  0  0  0999 V2000
    9.6913   -2.6746   26.0937 C   0  0  0  0  0  0  0  0  0  0  0  0
   10.4510   -3.7594   26.0205 C   0  0  0  0  0  0  0  0  0  0  0  0
   10.0538   -6.2474   18.8626 C   0  0  0  0  0  0  0  0  0  0  0  0
    1.5642  -10.1718   17.6698 C   0  0  0  0  0  0  0  0  0  0  0  0
    6.9593   -6.0348   15.9282 O   0  0  0  0  0  0  0  0  0  0  0  0
    7.6357   -8.6866   15.5029 C   0  0  0  0  0  0  0  0  0  0  0  0
    2.8809  -11.3233   19.1606 C   0  0  0  0  0  0  0  0  0  0  0  0
   11.1854   -3.9573   22.3556 C   0  0  0  0  0  0  0  0  0  0  0  0
   10.4987   -5.5250   19.7808 C   0  0  0  0  0  0  0  0  0  0  0  0
    5.5717   -7.8441   15.9975 C   0  0  0  0  0  0  0  0  0  0  0  0
    9.0023   -5.8073   17.1132 N   0  0  0  0  0  0  0  0  0  0  0  0
   10.9784   -4.2055   24.8742 C   0  0  0  0  0  0  0  0  0  0  0  0
    8.4304   -7.6814   16.8946 C   0  0  0  0  0  0  0  0  0  0  0  0
   10.2160   -3.8328   17.7423 C   0  0  0  0  0  0  0  0  0  0  0  0
    6.2756   -8.0550   16.3683 N   0  0  0  0  0  0  0  0  0  0  0  0
    3.9731   -9.8993   17.6263 N   0  0  0  0  0  0  0  0  0  0  0  0
    1.7230   -9.2278   16.6468 N   0  0  0  0  0  0  0  0  0  0  0  0
   10.6406   -4.5032   27.2543 C   0  0  0  0  0  0  0  0  0  0  0  0
    8.2069   -6.3465   16.6779 C   0  0  0  0  0  0  0  0  0  0  0  0
   10.6232   -3.4907   18.8717 C   0  0  0  0  0  0  0  0  0  0  0  0
    7.4256   -8.5334   16.5694 C   0  0  0  0  0  0  0  0  0  0  0  0
   10.7801   -3.3875   23.7267 C   0  0  0  0  0  0  0  0  0  0  0  0
   10.0380   -2.2165   23.7702 C   0  0  0  0  0  0  0  0  0  0  0  0
    1.7019  -11.7559   19.8200 C   0  0  0  0  0  0  0  0  0  0  0  0
    9.5106   -1.9071   24.9069 C   0  0  0  0  0  0  0  0  0  0  0  0
   11.0230   -3.5106   21.2373 C   0  0  0  0  0  0  0  0  0  0  0  0
    0.3745  -10.6554   18.2312 C   0  0  0  0  0  0  0  0  0  0  0  0
    9.5375   -4.7603   17.1890 C   0  0  0  0  0  0  0  0  0  0  0  0
    3.5358   -8.0458   15.6171 C   0  0  0  0  0  0  0  0  0  0  0  0
    0.4850  -11.4533   19.3671 C   0  0  0  0  0  0  0  0  0  0  0  0
    2.8273   -8.7268   16.2476 C   0  0  0  0  0  0  0  0  0  0  0  0
    4.1375   -8.0718   15.7336 N   0  0  0  0  0  0  0  0  0  0  0  0
    2.7477  -10.3993   18.0852 C   0  0  0  0  0  0  0  0  0  0  0  0
   10.7681   -4.1797   19.9732 C   0  0  0  0  0  0  0  0  0  0  0  0
  1  2  4  0
  1 25  4  0
  2 12  4  0
  2 18  1  0
  3  9  4  0
  4 17  4  0
  4 27  4  0
  4 33  4  0
  5 19  1  0
  6 21  1  0
  7 24  4  0
  7 33  4  0
  8 22  1  0
  8 26  1  0
  9 34  4  0
 10 15  1  0
 10 32  1  0
 11 19  1  0
 11 28  1  0
 12 22  4  0
 13 19  1  0
 13 21  1  0
 14 20  4  0
 14 28  4  0
 15 21  1  0
 16 33  4  0
 17 31  4  0
 20 34  4  0
 22 23  4  0
 23 25  4  0
 24 30  4  0
 26 34  1  0
 27 30  4  0
 29 31  4  0
 29 32  4  0
M  END
$$$$

 Created by Python create_sdf_string function

 34 70  0  0  0  0  0  0  0  0999 V2000
    9.8391   -2.5086   26.1138 C   0  0  0  0  0  0  0  0  0  0  0  0
   10.1884   -3.9242   25.5715 C   0  0  0  0  0  0  0  0  0  0  0  0
   10.7928   -6.2481   18.7808 C   0  0  0  0  0  0  0  0  0  0  0  0
    8.0633   -8.9900   15.5534 C   0  0  0  0  0  0  0  0  0  0  0  0
   10.9323   -4.2948   22.5247 C   0  0  0  0  0  0  0  0  0  0  0  0
   10.6991   -5.5637   19.6840 C   0  0  0  0  0  0  0  0  0  0  0  0
    9.2120   -5.5746   17.4509 N   0  0  0  0  0  0  0  0  0  0  0  0
    9.8545   -4.0952   24.7753 C   0  0  0  0  0  0  0  0  0  0  0  0
    7.8318   -7.6540   17.0416 F   0  0  0  0  0  0  0  0  0  0  0  0
   10.4571   -3.8655   17.6870 C   0  0  0  0  0  0  0  0  0  0  0  0
    7.0462   -7.4827   16.3864 N   0  0  0  0  0  0  0  0  0  0  0  0
    4.5027   -9.8433   16.9368 N   0  0  0  0  0  0  0  0  0  0  0  0
   10.5632   -4.6807   27.2960 C   0  0  0  0  0  0  0  0  0  0  0  0
   10.5374   -3.4387   18.8570 C   0  0  0  0  0  0  0  0  0  0  0  0
    7.6839   -8.2650   16.4164 C   0  0  0  0  0  0  0  0  0  0  0  0
   10.0376   -2.3029   23.6078 C   0  0  0  0  0  0  0  0  0  0  0  0
    1.7870  -11.8877   19.8277 C   0  0  0  0  0  0  0  0  0  0  0  0
   11.0441   -3.9216   20.9940 C   0  0  0  0  0  0  0  0  0  0  0  0
    0.2962  -11.0683   17.9703 C   0  0  0  0  0  0  0  0  0  0  0  0
    9.0257   -4.0921   18.0917 S   0  0  0  0  0  0  0  0  0  0  0  0
    3.0839   -8.2595   15.7498 C   0  0  0  0  0  0  0  0  0  0  0  0
   -0.0051  -11.2141   19.5400 C   0  0  0  0  0  0  0  0  0  0  0  0
    2.5342   -8.8195   15.8470 C   0  0  0  0  0  0  0  0  0  0  0  0
    5.1036   -8.4928   15.8152 N   0  0  0  0  0  0  0  0  0  0  0  0
    2.8236  -10.4588   19.5586 C   0  0  0  0  0  0  0  0  0  0  0  0
   10.8548   -4.0702   20.2132 C   0  0  0  0  0  0  0  0  0  0  0  0
    1.5615   -9.7123   17.4993 He  0  0  0  0  0  0  0  0  0  0  0  0
    7.0985   -4.7792   15.6625 He  0  0  0  0  0  0  0  0  0  0  0  0
    2.7566  -11.4525   19.1367 He  0  0  0  0  0  0  0  0  0  0  0  0
    5.7533   -8.2249   16.0178 He  0  0  0  0  0  0  0  0  0  0  0  0
    2.0826   -8.4670   15.8200 He  0  0  0  0  0  0  0  0  0  0  0  0
    8.9131   -5.7246   17.0573 He  0  0  0  0  0  0  0  0  0  0  0  0
   11.4003   -3.5926   23.0025 He  0  0  0  0  0  0  0  0  0  0  0  0
   10.1999   -1.7623   24.6288 He  0  0  0  0  0  0  0  0  0  0  0  0
  1  2  2  0
  1  5  1  0
  1  6  2  0
  1  8  3  0
  1 14  1  0
  1 24  4  0
  1 26  4  0
  2  8  4  0
  2 20  3  0
  2 22  1  0
  2 25  3  0
  3  6  3  0
  3  7  2  0
  3 11  3  0
  3 12  2  0
  3 17  2  0
  4  7  4  0
  4 11  3  0
  4 12  3  0
  4 15  1  0
  4 24  3  0
  5  8  2  0
  5 18  1  0
  5 25  3  0
  6  9  3  0
  6 14  4  0
  6 19  3  0
  6 25  2  0
  6 26  4  0
  7 20  1  0
  8 12  1  0
  8 13  3  0
  8 15  4  0
  8 16  2  0
  8 18  2  0
  8 23  4  0
  8 25  3  0
  9 10  3  0
  9 15  1  0
  9 20  4  0
 10 14  4  0
 10 20  4  0
 10 23  3  0
 10 24  2  0
 11 13  3  0
 11 18  2  0
 11 19  2  0
 11 22  1  0
 12 14  3  0
 12 17  4  0
 12 19  2  0
 13 15  3  0
 13 18  4  0
 13 19  1  0
 13 21  1  0
 14 23  3  0
 14 24  3  0
 14 26  4  0
 15 26  1  0
 16 25  4  0
 17 22  4  0
 17 24  3  0
 18 20  2  0
 18 26  1  0
 19 23  1  0
 20 22  4  0
 21 23  4  0
 22 25  3  0
 23 24  1  0
 24 25  4  0
M  END
$$$$

 Created by Python create_sdf_string function

 34 37  0  0  0  0  0  0  0  0999 V2000
    9.7879   -2.4794   25.9414 C   0  0  0  0  0  0  0  0  0  0  0  0
   10.2682   -3.6887   25.8973 C   0  0  0  0  0  0  0  0  0  0  0  0
   10.2946   -5.9804   18.8594 C   0  0  0  0  0  0  0  0  0  0  0  0
    1.6459  -10.1195   17.5727 C   0  0  0  0  0  0  0  0  0  0  0  0
    7.6203   -5.0372   15.6981 O   0  0  0  0  0  0  0  0  0  0  0  0
    7.5617   -8.6823   15.5709 C   0  0  0  0  0  0  0  0  0  0  0  0
    2.8097  -11.2832   19.2028 C   0  0  0  0  0  0  0  0  0  0  0  0
   11.0653   -4.2119   22.2875 C   0  0  0  0  0  0  0  0  0  0  0  0
   10.7185   -5.5187   19.8867 C   0  0  0  0  0  0  0  0  0  0  0  0
    5.9042   -8.0628   16.1543 C   0  0  0  0  0  0  0  0  0  0  0  0
    9.2144   -5.4130   16.9561 N   0  0  0  0  0  0  0  0  0  0  0  0
   10.7420   -4.2890   24.7163 C   0  0  0  0  0  0  0  0  0  0  0  0
    7.6282   -7.2721   16.7303 C   0  0  0  0  0  0  0  0  0  0  0  0
   10.3437   -3.7686   17.9740 C   0  0  0  0  0  0  0  0  0  0  0  0
    6.2765   -7.1563   16.1411 C   0  0  0  0  0  0  0  0  0  0  0  0
    3.9612   -9.7662   17.5957 N   0  0  0  0  0  0  0  0  0  0  0  0
    1.6036   -9.2899   16.3621 N   0  0  0  0  0  0  0  0  0  0  0  0
   10.2647   -4.4632   27.1404 C   0  0  0  0  0  0  0  0  0  0  0  0
    8.1798   -6.0471   16.5618 C   0  0  0  0  0  0  0  0  0  0  0  0
   10.8192   -3.3147   19.1198 C   0  0  0  0  0  0  0  0  0  0  0  0
    8.1041   -8.4127   16.5217 C   0  0  0  0  0  0  0  0  0  0  0  0
   10.7060   -3.5566   23.5656 C   0  0  0  0  0  0  0  0  0  0  0  0
   10.1941   -2.2371   23.6100 C   0  0  0  0  0  0  0  0  0  0  0  0
    1.5878  -11.7657   19.7635 C   0  0  0  0  0  0  0  0  0  0  0  0
    9.7601   -1.7378   24.7492 C   0  0  0  0  0  0  0  0  0  0  0  0
   11.2420   -3.7596   21.3462 C   0  0  0  0  0  0  0  0  0  0  0  0
    0.4367  -10.6625   18.0463 C   0  0  0  0  0  0  0  0  0  0  0  0
    9.9252   -5.0504   17.8437 C   0  0  0  0  0  0  0  0  0  0  0  0
    3.7925   -9.0431   16.5312 C   0  0  0  0  0  0  0  0  0  0  0  0
    0.4345  -11.4620   19.1797 C   0  0  0  0  0  0  0  0  0  0  0  0
    2.6353   -8.8070   16.0778 C   0  0  0  0  0  0  0  0  0  0  0  0
    5.0894   -8.6482   15.8845 N   0  0  0  0  0  0  0  0  0  0  0  0
    2.7862  -10.4896   18.1407 C   0  0  0  0  0  0  0  0  0  0  0  0
   10.9007   -4.2119   20.0954 C   0  0  0  0  0  0  0  0  0  0  0  0
  1  2  4  0
  1 25  4  0
  2 12  4  0
  2 18  1  0
  3  9  4  0
  3 28  4  0
  4 17  4  0
  4 27  4  0
  4 33  4  0
  5 19  2  0
  6 21  1  0
  7 24  4  0
  7 33  4  0
  8 22  1  0
  8 26  1  0
  9 34  4  0
 10 15  1  0
 10 32  1  0
 11 19  1  0
 11 28  1  0
 12 22  4  0
 13 15  1  0
 13 19  1  0
 13 21  1  0
 14 20  4  0
 14 28  4  0
 16 29  4  0
 16 33  4  0
 17 31  4  0
 20 34  4  0
 22 23  4  0
 23 25  4  0
 24 30  4  0
 26 34  1  0
 27 30  4  0
 29 31  4  0
 29 32  1  0
M  END
$$$$

 Created by Python create_sdf_string function

 34 88  0  0  0  0  0  0  0  0999 V2000
   10.2209   -3.4647   25.6731 C   0  0  0  0  0  0  0  0  0  0  0  0
    9.7765   -5.4252   18.7826 Cl  0  0  0  0  0  0  0  0  0  0  0  0
    2.8416  -10.2891   18.0593 Cl  0  0  0  0  0  0  0  0  0  0  0  0
    8.4967   -8.6942   15.0045 F   0  0  0  0  0  0  0  0  0  0  0  0
    2.4556  -11.5478   19.1803 C   0  0  0  0  0  0  0  0  0  0  0  0
   10.7300   -5.3223   19.8450 C   0  0  0  0  0  0  0  0  0  0  0  0
    5.9077   -8.4681   16.6524 C   0  0  0  0  0  0  0  0  0  0  0  0
    9.1629   -5.5111   17.0654 N   0  0  0  0  0  0  0  0  0  0  0  0
   10.8772   -4.5522   24.7676 C   0  0  0  0  0  0  0  0  0  0  0  0
    7.0133   -6.5200   16.5865 C   0  0  0  0  0  0  0  0  0  0  0  0
    9.9826   -3.5713   18.1518 C   0  0  0  0  0  0  0  0  0  0  0  0
    7.0685   -7.3630   16.4419 C   0  0  0  0  0  0  0  0  0  0  0  0
    3.6329   -8.8661   17.1537 N   0  0  0  0  0  0  0  0  0  0  0  0
    1.4893   -9.6174   16.0877 N   0  0  0  0  0  0  0  0  0  0  0  0
   10.5018   -3.6074   27.2506 C   0  0  0  0  0  0  0  0  0  0  0  0
    8.2131   -6.2873   15.9932 C   0  0  0  0  0  0  0  0  0  0  0  0
   10.6455   -3.5371   18.9941 C   0  0  0  0  0  0  0  0  0  0  0  0
    8.1703   -8.0692   16.5001 C   0  0  0  0  0  0  0  0  0  0  0  0
   10.8387   -3.3415   24.5459 O   0  0  0  0  0  0  0  0  0  0  0  0
    9.4456   -1.7367   25.4416 C   0  0  0  0  0  0  0  0  0  0  0  0
   11.2989   -3.7357   21.5856 C   0  0  0  0  0  0  0  0  0  0  0  0
    0.2771  -10.9719   17.8099 C   0  0  0  0  0  0  0  0  0  0  0  0
    9.6856   -4.9605   17.9274 Cl  0  0  0  0  0  0  0  0  0  0  0  0
    3.9084   -8.7610   16.2903 C   0  0  0  0  0  0  0  0  0  0  0  0
    0.3470  -11.2889   18.4961 C   0  0  0  0  0  0  0  0  0  0  0  0
    2.3760   -8.5069   16.4239 C   0  0  0  0  0  0  0  0  0  0  0  0
    5.6470   -8.5659   15.4106 N   0  0  0  0  0  0  0  0  0  0  0  0
   10.9230   -4.3962   20.2276 C   0  0  0  0  0  0  0  0  0  0  0  0
   10.2706   -2.7381   25.4129 He  0  0  0  0  0  0  0  0  0  0  0  0
    7.7115   -4.4729   15.0434 He  0  0  0  0  0  0  0  0  0  0  0  0
   10.8682   -4.3233   22.7144 He  0  0  0  0  0  0  0  0  0  0  0  0
   10.0569   -2.2235   23.5231 He  0  0  0  0  0  0  0  0  0  0  0  0
    1.9823  -11.9526   20.0661 He  0  0  0  0  0  0  0  0  0  0  0  0
    2.0570  -10.2078   17.3821 He  0  0  0  0  0  0  0  0  0  0  0  0
  1  9  4  0
  1 13  1  0
  1 15  1  0
  1 25  2  0
  2  6  4  0
  2 12  3  0
  2 16  3  0
  2 17  2  0
  2 20  3  0
  2 21  1  0
  2 24  1  0
  2 25  4  0
  2 27  1  0
  3  6  2  0
  3  8  4  0
  3 11  1  0
  3 14  1  0
  3 19  4  0
  3 21  2  0
  3 22  1  0
  4  5  1  0
  4  7  4  0
  4 13  4  0
  4 16  1  0
  4 18  1  0
  4 21  4  0
  4 22  4  0
  4 27  3  0
  5 12  2  0
  5 15  1  0
  6 17  1  0
  6 28  4  0
  7 10  1  0
  7 13  4  0
  7 14  2  0
  7 25  2  0
  7 27  4  0
  8  9  1  0
  8 14  2  0
  8 16  1  0
  8 20  1  0
  8 23  1  0
  9 19  4  0
  9 24  1  0
  9 26  3  0
 10 12  1  0
 10 13  1  0
 10 16  1  0
 10 18  1  0
 10 25  4  0
 10 27  2  0
 11 12  3  0
 11 17  4  0
 11 22  2  0
 11 26  2  0
 12 18  3  0
 12 20  4  0
 12 23  4  0
 12 27  2  0
 13 14  1  0
 13 15  1  0
 13 19  1  0
 13 24  4  0
 14 21  4  0
 14 23  2  0
 14 24  3  0
 14 27  1  0
 15 21  4  0
 15 23  3  0
 15 25  2  0
 15 28  1  0
 16 18  2  0
 16 21  3  0
 16 25  3  0
 16 26  2  0
 17 19  4  0
 17 24  1  0
 17 28  4  0
 18 19  2  0
 18 26  2  0
 19 22  3  0
 20 24  4  0
 21 23  3  0
 21 27  1  0
 21 28  2  0
 24 26  1  0
 25 26  4  0
 25 28  4  0
M  END
$$$$

 Created by Python create_sdf_string function

 34 36  0  0  0  0  0  0  0  0999 V2000
    9.6930   -2.3632   26.0067 C   0  0  0  0  0  0  0  0  0  0  0  0
   10.3622   -3.5217   26.1018 C   0  0  0  0  0  0  0  0  0  0  0  0
   10.0585   -5.9074   18.8810 C   0  0  0  0  0  0  0  0  0  0  0  0
    2.4720  -10.4663   18.0728 C   0  0  0  0  0  0  0  0  0  0  0  0
    7.9408   -4.8302   15.4689 O   0  0  0  0  0  0  0  0  0  0  0  0
    7.9009   -8.5113   15.1987 C   0  0  0  0  0  0  0  0  0  0  0  0
    2.5452  -11.2722   19.1399 C   0  0  0  0  0  0  0  0  0  0  0  0
   11.0491   -4.3014   22.5729 O   0  0  0  0  0  0  0  0  0  0  0  0
   10.5474   -5.4883   20.0213 C   0  0  0  0  0  0  0  0  0  0  0  0
    5.6319   -8.3655   16.4681 C   0  0  0  0  0  0  0  0  0  0  0  0
    9.1358   -5.4676   16.7891 N   0  0  0  0  0  0  0  0  0  0  0  0
   10.8638   -4.1911   24.9501 C   0  0  0  0  0  0  0  0  0  0  0  0
    7.3642   -6.9432   16.5389 C   0  0  0  0  0  0  0  0  0  0  0  0
   10.2271   -3.7915   17.9624 C   0  0  0  0  0  0  0  0  0  0  0  0
    6.4703   -7.4750   16.5930 C   0  0  0  0  0  0  0  0  0  0  0  0
    4.4024   -9.0498   17.3436 N   0  0  0  0  0  0  0  0  0  0  0  0
    1.4505   -9.1919   16.2472 N   0  0  0  0  0  0  0  0  0  0  0  0
   10.5828   -4.0856   27.4569 C   0  0  0  0  0  0  0  0  0  0  0  0
    8.2008   -5.8906   16.2204 C   0  0  0  0  0  0  0  0  0  0  0  0
   10.7658   -3.2974   19.1140 C   0  0  0  0  0  0  0  0  0  0  0  0
    8.2546   -8.2143   16.3820 C   0  0  0  0  0  0  0  0  0  0  0  0
   10.6731   -3.5609   23.7702 C   0  0  0  0  0  0  0  0  0  0  0  0
   10.1124   -2.3178   23.6437 C   0  0  0  0  0  0  0  0  0  0  0  0
    1.5245  -11.8918   19.6004 C   0  0  0  0  0  0  0  0  0  0  0  0
    9.6000   -1.7002   24.8200 C   0  0  0  0  0  0  0  0  0  0  0  0
   11.3216   -3.6666   21.4355 C   0  0  0  0  0  0  0  0  0  0  0  0
    0.3647  -10.9526   17.8547 C   0  0  0  0  0  0  0  0  0  0  0  0
    9.8040   -5.0034   17.8064 C   0  0  0  0  0  0  0  0  0  0  0  0
    3.4902   -9.0566   16.6646 C   0  0  0  0  0  0  0  0  0  0  0  0
    0.4853  -11.6497   18.8425 C   0  0  0  0  0  0  0  0  0  0  0  0
    2.6542   -8.7402   15.9566 C   0  0  0  0  0  0  0  0  0  0  0  0
    5.8664   -8.5611   15.5409 N   0  0  0  0  0  0  0  0  0  0  0  0
    2.5317   -9.9876   17.5767 C   0  0  0  0  0  0  0  0  0  0  0  0
   10.8762   -4.1612   20.1930 C   0  0  0  0  0  0  0  0  0  0  0  0
  1  2  4  0
  1 25  4  0
  2 12  4  0
  2 18  1  0
  3  9  4  0
  3 28  4  0
  4  7  4  0
  4 33  4  0
  5 19  2  0
  6 21  1  0
  6 32  1  0
  7 24  4  0
  8 22  1  0
  8 26  1  0
  9 34  4  0
 10 15  1  0
 10 16  4  0
 10 32  4  0
 11 19  1  0
 11 28  1  0
 12 22  4  0
 13 15  1  0
 13 19  1  0
 13 21  1  0
 14 20  4  0
 14 28  4  0
 16 29  4  0
 17 31  4  0
 20 34  4  0
 22 23  4  0
 23 25  4  0
 24 30  4  0
 26 34  1  0
 27 30  4  0
 29 31  4  0
 29 33  1  0
M  END
$$$$

 Created by Python create_sdf_string function

 34 65  0  0  0  0  0  0  0  0999 V2000
    9.6311   -2.2882   26.9028 C   0  0  0  0  0  0  0  0  0  0  0  0
   10.5677   -3.3733   25.7233 C   0  0  0  0  0  0  0  0  0  0  0  0
    8.0764   -9.6528   15.4519 C   0  0  0  0  0  0  0  0  0  0  0  0
    2.6178  -11.3932   19.0185 C   0  0  0  0  0  0  0  0  0  0  0  0
   11.2009   -4.4661   22.3635 O   0  0  0  0  0  0  0  0  0  0  0  0
   10.7038   -5.8432   19.9546 N   0  0  0  0  0  0  0  0  0  0  0  0
    5.0920   -8.1745   16.4399 N   0  0  0  0  0  0  0  0  0  0  0  0
    8.9145   -5.5876   16.6780 N   0  0  0  0  0  0  0  0  0  0  0  0
   10.8126   -4.4302   24.3334 C   0  0  0  0  0  0  0  0  0  0  0  0
    7.7919   -7.8249   16.4721 C   0  0  0  0  0  0  0  0  0  0  0  0
   10.5000   -3.9485   18.0907 C   0  0  0  0  0  0  0  0  0  0  0  0
    6.2274   -7.4901   16.9221 C   0  0  0  0  0  0  0  0  0  0  0  0
    4.4406   -9.0893   18.1435 N   0  0  0  0  0  0  0  0  0  0  0  0
    1.7453   -9.3013   15.5893 O   0  0  0  0  0  0  0  0  0  0  0  0
   10.0734   -4.6254   26.6704 F   0  0  0  0  0  0  0  0  0  0  0  0
    7.4427   -6.8667   16.2902 O   0  0  0  0  0  0  0  0  0  0  0  0
   11.0317   -3.5166   19.3020 C   0  0  0  0  0  0  0  0  0  0  0  0
    8.2772   -7.9414   16.3416 C   0  0  0  0  0  0  0  0  0  0  0  0
   10.2825   -4.1041   23.8746 Cl  0  0  0  0  0  0  0  0  0  0  0  0
   10.1876   -2.5836   23.6922 C   0  0  0  0  0  0  0  0  0  0  0  0
    1.5747  -12.0624   19.6924 C   0  0  0  0  0  0  0  0  0  0  0  0
    9.4565   -1.4949   24.8452 N   0  0  0  0  0  0  0  0  0  0  0  0
   10.9340   -3.6284   21.5718 C   0  0  0  0  0  0  0  0  0  0  0  0
    0.2753  -11.2615   17.6905 C   0  0  0  0  0  0  0  0  0  0  0  0
    3.4051   -9.3039   16.7526 C   0  0  0  0  0  0  0  0  0  0  0  0
    1.4232  -11.3182   19.3831 O   0  0  0  0  0  0  0  0  0  0  0  0
    2.2297   -9.6746   18.1325 C   0  0  0  0  0  0  0  0  0  0  0  0
    9.2397   -5.4430   19.8205 He  0  0  0  0  0  0  0  0  0  0  0  0
    2.4723  -10.9271   18.5605 He  0  0  0  0  0  0  0  0  0  0  0  0
    7.4610   -3.8756   14.9676 He  0  0  0  0  0  0  0  0  0  0  0  0
   10.1825   -4.9902   17.6972 He  0  0  0  0  0  0  0  0  0  0  0  0
    2.5613   -8.8171   15.6497 He  0  0  0  0  0  0  0  0  0  0  0  0
    5.2018   -8.5924   16.5659 He  0  0  0  0  0  0  0  0  0  0  0  0
   10.9243   -4.2477   20.3966 He  0  0  0  0  0  0  0  0  0  0  0  0
  1  4  2  0
  1 18  4  0
  1 19  3  0
  1 22  2  0
  2  3  4  0
  2  9  4  0
  2 14  3  0
  2 15  1  0
  2 19  4  0
  2 22  1  0
  3  6  2  0
  3  8  4  0
  3 19  1  0
  3 27  4  0
  4 12  2  0
  4 14  4  0
  4 21  4  0
  5 10  2  0
  5 12  2  0
  5 14  2  0
  5 19  1  0
  5 22  2  0
  5 23  1  0
  6 27  4  0
  7  8  3  0
  7 12  1  0
  7 13  1  0
  7 27  4  0
  8 11  1  0
  8 16  2  0
  8 21  2  0
  8 22  1  0
  9 10  2  0
  9 11  1  0
  9 16  3  0
  9 18  4  0
  9 19  3  0
  9 21  1  0
  9 23  1  0
 10 13  4  0
 10 17  3  0
 10 25  1  0
 11 15  2  0
 11 17  2  0
 12 13  3  0
 12 25  1  0
 13 14  3  0
 13 25  4  0
 13 27  3  0
 14 17  2  0
 14 20  1  0
 14 21  2  0
 14 25  4  0
 15 26  4  0
 15 27  1  0
 16 26  4  0
 16 27  3  0
 17 19  1  0
 17 25  2  0
 18 26  1  0
 19 20  4  0
 19 27  2  0
 21 26  4  0
 23 25  1  0
 24 26  4  0
M  END
$$$$

 Created by Python create_sdf_string function

 34 36  0  0  0  0  0  0  0  0999 V2000
    9.6305   -2.4961   26.0045 C   0  0  0  0  0  0  0  0  0  0  0  0
   10.2181   -3.7258   26.0246 C   0  0  0  0  0  0  0  0  0  0  0  0
    9.7862   -5.8402   18.8756 C   0  0  0  0  0  0  0  0  0  0  0  0
    2.4677  -10.5457   18.1383 C   0  0  0  0  0  0  0  0  0  0  0  0
    8.5328   -4.6062   15.7827 O   0  0  0  0  0  0  0  0  0  0  0  0
    7.4444   -9.0128   15.6355 C   0  0  0  0  0  0  0  0  0  0  0  0
    2.8459  -11.2747   19.2126 C   0  0  0  0  0  0  0  0  0  0  0  0
   10.9744   -4.2316   22.3668 O   0  0  0  0  0  0  0  0  0  0  0  0
   10.2897   -5.4530   20.0075 C   0  0  0  0  0  0  0  0  0  0  0  0
    5.4477   -8.3491   16.7364 N   0  0  0  0  0  0  0  0  0  0  0  0
    8.8671   -5.4485   16.6183 C   0  0  0  0  0  0  0  0  0  0  0  0
   10.7564   -4.2937   24.8295 C   0  0  0  0  0  0  0  0  0  0  0  0
    8.0063   -6.7660   16.5726 C   0  0  0  0  0  0  0  0  0  0  0  0
   10.4069   -3.8542   17.8304 C   0  0  0  0  0  0  0  0  0  0  0  0
    6.1577   -7.3012   17.2844 C   0  0  0  0  0  0  0  0  0  0  0  0
    4.4102   -9.0253   17.6169 N   0  0  0  0  0  0  0  0  0  0  0  0
    1.8728   -9.3534   16.0926 N   0  0  0  0  0  0  0  0  0  0  0  0
   10.2611   -4.4915   27.2929 F   0  0  0  0  0  0  0  0  0  0  0  0
    6.9840   -6.5937   16.2757 C   0  0  0  0  0  0  0  0  0  0  0  0
   10.9778   -3.4022   19.0024 C   0  0  0  0  0  0  0  0  0  0  0  0
    8.3599   -8.0857   16.3305 C   0  0  0  0  0  0  0  0  0  0  0  0
   10.6254   -3.5581   23.6838 C   0  0  0  0  0  0  0  0  0  0  0  0
   10.0459   -2.3067   23.6796 C   0  0  0  0  0  0  0  0  0  0  0  0
    1.8195  -11.8945   19.7984 C   0  0  0  0  0  0  0  0  0  0  0  0
    9.5528   -1.7534   24.8096 C   0  0  0  0  0  0  0  0  0  0  0  0
   11.2733   -3.6236   21.4231 C   0  0  0  0  0  0  0  0  0  0  0  0
    0.5739  -10.9869   18.0770 C   0  0  0  0  0  0  0  0  0  0  0  0
    9.7472   -5.1027   17.7839 C   0  0  0  0  0  0  0  0  0  0  0  0
    3.4720   -9.1734   16.8269 C   0  0  0  0  0  0  0  0  0  0  0  0
    0.7458  -11.7567   19.1153 N   0  0  0  0  0  0  0  0  0  0  0  0
    2.9507   -8.8688   15.9057 N   0  0  0  0  0  0  0  0  0  0  0  0
    6.0896   -8.9241   16.0614 C   0  0  0  0  0  0  0  0  0  0  0  0
    1.8673  -10.2959   17.5875 C   0  0  0  0  0  0  0  0  0  0  0  0
   10.8168   -4.2096   20.0853 C   0  0  0  0  0  0  0  0  0  0  0  0
  1  2  4  0
  1 25  4  0
  2 12  4  0
  2 18  1  0
  3  9  4  0
  3 28  4  0
  4  7  4  0
  4 33  4  0
  5 11  2  0
  6 21  1  0
  6 32  1  0
  7 24  4  0
  8 22  1  0
  8 26  1  0
  9 34  4  0
 10 15  1  0
 10 16  1  0
 10 32  1  0
 11 13  1  0
 11 28  1  0
 12 22  4  0
 13 19  1  0
 13 21  1  0
 14 20  4  0
 14 28  4  0
 15 19  1  0
 16 29  4  0
 17 31  4  0
 20 34  4  0
 22 23  4  0
 23 25  4  0
 24 30  4  0
 26 34  1  0
 27 30  4  0
 27 33  4  0
 29 31  4  0
M  END
$$$$

 Created by Python create_sdf_string function

 34 90  0  0  0  0  0  0  0  0999 V2000
    9.3482   -2.3791   25.7526 N   0  0  0  0  0  0  0  0  0  0  0  0
    9.0177   -5.3350   18.8676 C   0  0  0  0  0  0  0  0  0  0  0  0
    8.9226   -5.5498   16.4805 Se  0  0  0  0  0  0  0  0  0  0  0  0
    7.0438   -8.5634   15.6154 C   0  0  0  0  0  0  0  0  0  0  0  0
    2.8993  -11.4245   19.2823 C   0  0  0  0  0  0  0  0  0  0  0  0
   10.6426   -3.8909   22.4071 O   0  0  0  0  0  0  0  0  0  0  0  0
   10.0353   -5.4342   19.9576 C   0  0  0  0  0  0  0  0  0  0  0  0
    4.8663   -8.1836   16.8717 N   0  0  0  0  0  0  0  0  0  0  0  0
    8.8357   -5.5477   16.4731 C   0  0  0  0  0  0  0  0  0  0  0  0
   11.0813   -4.3839   24.6508 C   0  0  0  0  0  0  0  0  0  0  0  0
    7.8027   -6.2380   16.3418 C   0  0  0  0  0  0  0  0  0  0  0  0
   10.2294   -3.7576   17.9141 N   0  0  0  0  0  0  0  0  0  0  0  0
    4.4225   -9.0793   18.2828 N   0  0  0  0  0  0  0  0  0  0  0  0
    1.6682   -9.9344   15.9926 N   0  0  0  0  0  0  0  0  0  0  0  0
   10.7050   -5.5398   27.7328 F   0  0  0  0  0  0  0  0  0  0  0  0
    7.1302   -7.0927   16.8736 C   0  0  0  0  0  0  0  0  0  0  0  0
   11.0968   -3.1046   19.0071 C   0  0  0  0  0  0  0  0  0  0  0  0
    8.3834   -8.2191   16.1774 C   0  0  0  0  0  0  0  0  0  0  0  0
   10.0461   -2.8601   23.7343 C   0  0  0  0  0  0  0  0  0  0  0  0
    1.6866  -11.6447   19.7163 C   0  0  0  0  0  0  0  0  0  0  0  0
    9.0586   -2.2705   23.9925 Cl  0  0  0  0  0  0  0  0  0  0  0  0
   10.8892   -3.6369   21.6114 C   0  0  0  0  0  0  0  0  0  0  0  0
    0.5842  -11.0399   17.8787 C   0  0  0  0  0  0  0  0  0  0  0  0
   10.2665   -4.4367   17.5784 O   0  0  0  0  0  0  0  0  0  0  0  0
    3.6761   -9.0134   16.8402 C   0  0  0  0  0  0  0  0  0  0  0  0
    0.8462  -12.2719   19.0707 S   0  0  0  0  0  0  0  0  0  0  0  0
    2.9376   -8.7637   16.1773 Cl  0  0  0  0  0  0  0  0  0  0  0  0
    6.8916   -8.7400   16.5428 C   0  0  0  0  0  0  0  0  0  0  0  0
    2.4888  -10.3664   17.1729 C   0  0  0  0  0  0  0  0  0  0  0  0
   10.9394   -4.4415   20.1819 C   0  0  0  0  0  0  0  0  0  0  0  0
   10.3000   -3.6550   25.9465 He  0  0  0  0  0  0  0  0  0  0  0  0
    2.3305  -10.7838   17.6893 He  0  0  0  0  0  0  0  0  0  0  0  0
    5.6614   -8.0549   16.2854 He  0  0  0  0  0  0  0  0  0  0  0  0
   10.9559   -3.4059   22.6381 He  0  0  0  0  0  0  0  0  0  0  0  0
  1 14  3  0
  1 16  1  0
  1 18  4  0
  1 20  2  0
  1 21  4  0
  1 28  3  0
  2  7  4  0
  2  8  4  0
  2 10  1  0
  2 14  4  0
  2 19  4  0
  2 21  2  0
  2 24  4  0
  2 25  4  0
  3  7  4  0
  3  9  2  0
  3 12  4  0
  3 16  3  0
  3 23  3  0
  3 24  1  0
  3 25  2  0
  3 28  4  0
  4  7  2  0
  4 18  1  0
  4 28  1  0
  4 29  3  0
  4 30  3  0
  5  6  1  0
  5 11  4  0
  5 12  3  0
  5 15  3  0
  5 20  4  0
  5 21  4  0
  5 25  3  0
  6 14  1  0
  6 22  3  0
  6 23  1  0
  7 10  2  0
  7 26  4  0
  7 27  2  0
  7 30  4  0
  8 13  1  0
  8 15  1  0
  8 27  3  0
  8 28  4  0
  8 30  3  0
  9 16  1  0
  9 24  1  0
 10 16  1  0
 10 19  1  0
 10 21  1  0
 10 26  1  0
 11 15  3  0
 11 19  1  0
 11 29  2  0
 12 16  3  0
 12 17  4  0
 12 21  2  0
 12 23  3  0
 12 24  1  0
 13 15  4  0
 13 18  1  0
 13 25  4  0
 13 27  2  0
 14 18  2  0
 14 20  4  0
 14 27  4  0
 14 30  3  0
 15 16  4  0
 15 19  4  0
 15 21  4  0
 16 18  1  0
 16 19  2  0
 17 27  3  0
 17 29  1  0
 17 30  4  0
 18 21  1  0
 18 24  2  0
 18 27  4  0
 18 29  3  0
 19 27  1  0
 20 26  4  0
 20 28  4  0
 21 29  3  0
 22 29  1  0
 22 30  1  0
 24 30  3  0
 25 27  4  0
 25 29  2  0
 26 29  2  0
M  END
$$$$

 Created by Python create_sdf_string function

 34 40  0  0  0  0  0  0  0  0999 V2000
    9.4524   -2.8232   25.8197 C   0  0  0  0  0  0  0  0  0  0  0  0
   10.2676   -3.8945   25.9092 C   0  0  0  0  0  0  0  0  0  0  0  0
    9.6564   -5.6585   18.7141 C   0  0  0  0  0  0  0  0  0  0  0  0
    2.6826  -10.4276   18.0712 C   0  0  0  0  0  0  0  0  0  0  0  0
    9.2450   -5.0308   15.9105 O   0  0  0  0  0  0  0  0  0  0  0  0
    7.3553   -8.8168   15.7462 C   0  0  0  0  0  0  0  0  0  0  0  0
    2.8269  -11.2609   19.2389 C   0  0  0  0  0  0  0  0  0  0  0  0
   10.9780   -4.0615   22.2277 O   0  0  0  0  0  0  0  0  0  0  0  0
   10.1862   -5.2442   19.9217 C   0  0  0  0  0  0  0  0  0  0  0  0
    5.2335   -8.3587   16.8958 N   0  0  0  0  0  0  0  0  0  0  0  0
    8.6929   -5.6217   16.4185 C   0  0  0  0  0  0  0  0  0  0  0  0
   10.9568   -4.3425   24.7280 C   0  0  0  0  0  0  0  0  0  0  0  0
    7.7285   -6.4653   16.3648 C   0  0  0  0  0  0  0  0  0  0  0  0
   10.5038   -3.6989   17.7708 C   0  0  0  0  0  0  0  0  0  0  0  0
    5.6870   -7.9295   16.2269 C   0  0  0  0  0  0  0  0  0  0  0  0
    4.0729   -9.4546   17.6956 N   0  0  0  0  0  0  0  0  0  0  0  0
    1.6432   -9.6036   16.2294 N   0  0  0  0  0  0  0  0  0  0  0  0
   10.4047   -4.5341   27.2351 F   0  0  0  0  0  0  0  0  0  0  0  0
    7.2547   -6.8039   16.6861 C   0  0  0  0  0  0  0  0  0  0  0  0
   10.9782   -3.2801   18.9972 C   0  0  0  0  0  0  0  0  0  0  0  0
    8.2999   -8.1803   16.0153 C   0  0  0  0  0  0  0  0  0  0  0  0
   10.7184   -3.5866   23.5952 C   0  0  0  0  0  0  0  0  0  0  0  0
   10.0384   -2.4274   23.5843 C   0  0  0  0  0  0  0  0  0  0  0  0
    1.8078  -12.0074   19.7008 C   0  0  0  0  0  0  0  0  0  0  0  0
    9.4013   -2.0957   24.6684 C   0  0  0  0  0  0  0  0  0  0  0  0
   11.3631   -3.6645   21.2705 C   0  0  0  0  0  0  0  0  0  0  0  0
    0.5734  -11.2376   17.7984 C   0  0  0  0  0  0  0  0  0  0  0  0
    9.7825   -4.8833   17.7103 C   0  0  0  0  0  0  0  0  0  0  0  0
    3.6742   -9.1824   17.0237 C   0  0  0  0  0  0  0  0  0  0  0  0
    0.6563  -11.9901   19.0174 N   0  0  0  0  0  0  0  0  0  0  0  0
    2.7966   -8.8945   16.0454 C   0  0  0  0  0  0  0  0  0  0  0  0
    6.8634   -8.8627   16.8634 C   0  0  0  0  0  0  0  0  0  0  0  0
    1.7030  -10.4088   17.3893 C   0  0  0  0  0  0  0  0  0  0  0  0
   10.8027   -4.0831   20.0617 C   0  0  0  0  0  0  0  0  0  0  0  0
  1  2  4  0
  1 25  4  0
  2 12  4  0
  2 18  1  0
  3  9  4  0
  3 28  4  0
  4  7  4  0
  4 16  4  0
  4 33  4  0
  5 11  2  0
  6 15  1  0
  6 21  1  0
  6 32  1  0
  7 24  4  0
  8 22  1  0
  8 26  1  0
  9 34  4  0
 10 15  1  0
 10 29  1  0
 10 32  1  0
 11 13  1  0
 11 28  1  0
 12 22  4  0
 13 19  1  0
 13 21  1  0
 14 20  4  0
 14 28  4  0
 15 19  1  0
 16 29  4  0
 17 31  4  0
 17 33  4  0
 19 21  1  0
 20 34  4  0
 22 23  4  0
 23 25  4  0
 24 30  4  0
 26 34  1  0
 27 30  4  0
 27 33  4  0
 29 31  4  0
M  END
$$$$

 Created by Python create_sdf_string function

 34 79  0  0  0  0  0  0  0  0999 V2000
    8.1252   -2.6129   25.7975 C   0  0  0  0  0  0  0  0  0  0  0  0
   10.3911   -4.0216   26.1218 C   0  0  0  0  0  0  0  0  0  0  0  0
    9.9224   -5.9653   19.1555 C   0  0  0  0  0  0  0  0  0  0  0  0
    2.1827  -10.5672   18.0828 C   0  0  0  0  0  0  0  0  0  0  0  0
    8.6786   -4.9876   15.6844 O   0  0  0  0  0  0  0  0  0  0  0  0
    7.8135   -8.2798   15.6128 F   0  0  0  0  0  0  0  0  0  0  0  0
   10.9779   -3.9022   22.1449 O   0  0  0  0  0  0  0  0  0  0  0  0
   10.1000   -5.4208   20.0765 C   0  0  0  0  0  0  0  0  0  0  0  0
    4.9005   -7.9978   17.2464 N   0  0  0  0  0  0  0  0  0  0  0  0
    8.7458   -5.9847   16.3459 C   0  0  0  0  0  0  0  0  0  0  0  0
   11.0270   -4.3392   24.9497 N   0  0  0  0  0  0  0  0  0  0  0  0
    6.9633   -6.5366   16.7339 C   0  0  0  0  0  0  0  0  0  0  0  0
   10.5393   -3.6306   17.7071 C   0  0  0  0  0  0  0  0  0  0  0  0
    4.2920   -9.3651   18.0423 N   0  0  0  0  0  0  0  0  0  0  0  0
    2.2945   -9.6151   16.5824 C   0  0  0  0  0  0  0  0  0  0  0  0
    7.8273   -7.6636   17.3803 C   0  0  0  0  0  0  0  0  0  0  0  0
   11.0224   -3.6432   19.1535 C   0  0  0  0  0  0  0  0  0  0  0  0
    8.2762   -7.9265   16.2496 C   0  0  0  0  0  0  0  0  0  0  0  0
    9.7076   -2.8280   23.7654 I   0  0  0  0  0  0  0  0  0  0  0  0
    1.6442  -11.6083   19.8957 C   0  0  0  0  0  0  0  0  0  0  0  0
    8.9985   -2.8000   24.8232 S   0  0  0  0  0  0  0  0  0  0  0  0
    0.7084  -11.0343   17.7286 C   0  0  0  0  0  0  0  0  0  0  0  0
    9.2136   -4.8864   17.7181 C   0  0  0  0  0  0  0  0  0  0  0  0
    3.5233   -9.1765   16.8225 C   0  0  0  0  0  0  0  0  0  0  0  0
    0.0453  -10.9444   18.9245 N   0  0  0  0  0  0  0  0  0  0  0  0
    3.0875   -8.8700   16.0678 C   0  0  0  0  0  0  0  0  0  0  0  0
   10.7507   -4.1280   20.3213 C   0  0  0  0  0  0  0  0  0  0  0  0
    2.8855  -10.7240   19.4314 He  0  0  0  0  0  0  0  0  0  0  0  0
    5.5633   -7.6452   16.1439 He  0  0  0  0  0  0  0  0  0  0  0  0
    9.8011   -4.9231   26.7040 He  0  0  0  0  0  0  0  0  0  0  0  0
   11.1821   -3.5189   23.4466 He  0  0  0  0  0  0  0  0  0  0  0  0
   11.2993   -3.8358   21.2381 He  0  0  0  0  0  0  0  0  0  0  0  0
    7.2702   -9.2556   16.5869 He  0  0  0  0  0  0  0  0  0  0  0  0
    2.0565  -10.6087   17.0732 He  0  0  0  0  0  0  0  0  0  0  0  0
  1  2  3  0
  1  7  3  0
  1  8  4  0
  1  9  3  0
  1 10  4  0
  1 12  4  0
  1 15  1  0
  1 20  3  0
  1 21  4  0
  2  5  1  0
  2  9  3  0
  2 11  4  0
  2 12  2  0
  3  8  3  0
  3 10  2  0
  3 15  1  0
  3 17  1  0
  3 20  3  0
  4 18  2  0
  4 19  4  0
  4 22  3  0
  5 10  2  0
  5 13  2  0
  5 15  2  0
  5 22  4  0
  6 10  4  0
  6 12  3  0
  6 15  3  0
  6 18  1  0
  6 21  3  0
  6 22  4  0
  6 26  2  0
  7 14  3  0
  7 19  4  0
  8  9  4  0
  8 14  4  0
  8 15  1  0
  8 19  1  0
  8 24  3  0
  8 26  1  0
  8 27  4  0
  9 14  2  0
  9 17  2  0
  9 23  4  0
  9 24  1  0
  9 25  4  0
  9 26  4  0
 10 12  1  0
 10 14  2  0
 10 15  3  0
 10 21  2  0
 10 23  2  0
 10 26  4  0
 11 27  4  0
 12 16  1  0
 12 21  3  0
 13 17  4  0
 13 23  4  0
 13 25  4  0
 14 16  1  0
 14 20  3  0
 15 22  1  0
 15 26  4  0
 16 17  1  0
 16 18  1  0
 16 25  2  0
 17 21  4  0
 17 22  3  0
 17 27  4  0
 18 20  3  0
 19 25  2  0
 20 21  2  0
 20 25  4  0
 21 23  1  0
 21 27  4  0
 22 25  4  0
 23 24  4  0
 24 26  4  0
 26 27  4  0
M  END
$$$$

 Created by Python create_sdf_string function

 34 38  0  0  0  0  0  0  0  0999 V2000
    9.0821   -3.1919   25.8961 C   0  0  0  0  0  0  0  0  0  0  0  0
   10.1303   -4.1135   25.8875 C   0  0  0  0  0  0  0  0  0  0  0  0
    9.8943   -6.0203   18.8955 C   0  0  0  0  0  0  0  0  0  0  0  0
    2.7261  -10.3455   18.2054 C   0  0  0  0  0  0  0  0  0  0  0  0
    8.6679   -4.9566   15.6348 O   0  0  0  0  0  0  0  0  0  0  0  0
    7.5452   -7.8190   15.2802 C   0  0  0  0  0  0  0  0  0  0  0  0
    2.7120  -10.9875   19.3292 N   0  0  0  0  0  0  0  0  0  0  0  0
   11.2437   -4.0298   22.3425 O   0  0  0  0  0  0  0  0  0  0  0  0
   10.4588   -5.4521   20.0296 C   0  0  0  0  0  0  0  0  0  0  0  0
    5.4101   -8.5517   16.7309 N   0  0  0  0  0  0  0  0  0  0  0  0
    8.6583   -5.6083   16.6463 C   0  0  0  0  0  0  0  0  0  0  0  0
   10.9383   -4.3628   24.7761 C   0  0  0  0  0  0  0  0  0  0  0  0
    7.5751   -6.4516   17.0462 N   0  0  0  0  0  0  0  0  0  0  0  0
   10.1708   -3.9708   17.7874 C   0  0  0  0  0  0  0  0  0  0  0  0
    5.9193   -7.5512   15.9331 C   0  0  0  0  0  0  0  0  0  0  0  0
    3.9067   -9.7537   17.9821 N   0  0  0  0  0  0  0  0  0  0  0  0
    1.8424   -9.5184   16.2388 C   0  0  0  0  0  0  0  0  0  0  0  0
   10.2217   -4.7364   27.0593 O   0  0  0  0  0  0  0  0  0  0  0  0
    7.5864   -7.5539   17.5336 C   0  0  0  0  0  0  0  0  0  0  0  0
   10.8000   -3.4372   18.9653 C   0  0  0  0  0  0  0  0  0  0  0  0
    7.9130   -8.2879   16.3915 C   0  0  0  0  0  0  0  0  0  0  0  0
   10.6986   -3.5818   23.6730 C   0  0  0  0  0  0  0  0  0  0  0  0
    9.8165   -2.5304   23.7518 C   0  0  0  0  0  0  0  0  0  0  0  0
    1.4478  -11.5141   19.7829 C   0  0  0  0  0  0  0  0  0  0  0  0
    9.0507   -2.3070   24.8928 C   0  0  0  0  0  0  0  0  0  0  0  0
   11.2465   -3.5826   21.2453 C   0  0  0  0  0  0  0  0  0  0  0  0
    0.4919  -10.8556   17.7975 C   0  0  0  0  0  0  0  0  0  0  0  0
    9.6352   -5.2164   17.7698 C   0  0  0  0  0  0  0  0  0  0  0  0
    4.1314   -9.0616   16.9035 C   0  0  0  0  0  0  0  0  0  0  0  0
    0.3806  -11.4476   18.9727 N   0  0  0  0  0  0  0  0  0  0  0  0
    3.0654   -8.8607   16.0586 C   0  0  0  0  0  0  0  0  0  0  0  0
    6.7804   -9.0699   16.9183 C   0  0  0  0  0  0  0  0  0  0  0  0
    1.6768  -10.1717   17.3796 C   0  0  0  0  0  0  0  0  0  0  0  0
   10.8153   -4.1964   20.0671 C   0  0  0  0  0  0  0  0  0  0  0  0
  1  2  4  0
  1 25  4  0
  2 12  4  0
  2 18  1  0
  3  9  4  0
  3 28  4  0
  4  7  4  0
  4 16  4  0
  4 33  4  0
  5 11  2  0
  6 15  1  0
  6 21  1  0
  7 24  4  0
  8 22  1  0
  8 26  1  0
  9 34  4  0
 10 15  1  0
 10 29  1  0
 10 32  1  0
 11 13  1  0
 11 28  1  0
 12 22  4  0
 13 19  1  0
 14 20  4  0
 14 28  4  0
 16 29  4  0
 17 31  4  0
 17 33  4  0
 19 21  1  0
 20 34  4  0
 21 32  1  0
 22 23  4  0
 23 25  4  0
 24 30  4  0
 26 34  1  0
 27 30  4  0
 27 33  4  0
 29 31  4  0
M  END
$$$$

 Created by Python create_sdf_string function

 34 69  0  0  0  0  0  0  0  0999 V2000
    8.7524   -3.8843   25.9527 C   0  0  0  0  0  0  0  0  0  0  0  0
   10.4490   -4.1018   25.6686 Se  0  0  0  0  0  0  0  0  0  0  0  0
   10.4133   -6.5446   18.6559 C   0  0  0  0  0  0  0  0  0  0  0  0
    3.0422   -9.6680   17.8582 N   0  0  0  0  0  0  0  0  0  0  0  0
    3.1054  -11.1062   19.2357 N   0  0  0  0  0  0  0  0  0  0  0  0
   11.1799   -4.2398   22.2030 O   0  0  0  0  0  0  0  0  0  0  0  0
    5.0268   -8.7454   16.2598 F   0  0  0  0  0  0  0  0  0  0  0  0
    8.6880   -5.6313   16.7606 C   0  0  0  0  0  0  0  0  0  0  0  0
   10.7103   -5.0181   25.0382 C   0  0  0  0  0  0  0  0  0  0  0  0
    7.3033   -7.0674   15.7389 N   0  0  0  0  0  0  0  0  0  0  0  0
   10.3970   -3.8105   17.6797 C   0  0  0  0  0  0  0  0  0  0  0  0
    6.6522   -6.9020   15.8087 C   0  0  0  0  0  0  0  0  0  0  0  0
    4.0578   -9.3560   18.5995 N   0  0  0  0  0  0  0  0  0  0  0  0
    2.5357   -9.2623   16.3867 P   0  0  0  0  0  0  0  0  0  0  0  0
   10.1421   -5.3202   27.4859 O   0  0  0  0  0  0  0  0  0  0  0  0
    8.4144   -7.7904   17.6977 F   0  0  0  0  0  0  0  0  0  0  0  0
   10.6045   -3.5499   18.9882 C   0  0  0  0  0  0  0  0  0  0  0  0
    7.7938   -8.5035   16.2217 C   0  0  0  0  0  0  0  0  0  0  0  0
   10.0363   -3.8787   24.2656 C   0  0  0  0  0  0  0  0  0  0  0  0
    9.7429   -2.5656   23.8181 C   0  0  0  0  0  0  0  0  0  0  0  0
    1.4566  -11.7999   19.8873 C   0  0  0  0  0  0  0  0  0  0  0  0
    9.3423   -2.4670   25.4802 C   0  0  0  0  0  0  0  0  0  0  0  0
   11.2208   -3.6053   20.9034 C   0  0  0  0  0  0  0  0  0  0  0  0
    0.6282  -11.0027   17.6025 C   0  0  0  0  0  0  0  0  0  0  0  0
    3.9742   -9.2135   16.9058 C   0  0  0  0  0  0  0  0  0  0  0  0
    3.1966   -8.3869   17.0987 C   0  0  0  0  0  0  0  0  0  0  0  0
    6.6412   -9.2119   16.4029 Se  0  0  0  0  0  0  0  0  0  0  0  0
    1.4583  -10.5029   16.7778 C   0  0  0  0  0  0  0  0  0  0  0  0
   10.7847   -4.2355   19.8996 C   0  0  0  0  0  0  0  0  0  0  0  0
    8.7644   -5.1829   15.0327 He  0  0  0  0  0  0  0  0  0  0  0  0
    8.0314   -8.1551   14.0351 He  0  0  0  0  0  0  0  0  0  0  0  0
   10.7313   -5.7161   20.1759 He  0  0  0  0  0  0  0  0  0  0  0  0
    9.0877   -5.1527   17.9785 He  0  0  0  0  0  0  0  0  0  0  0  0
    0.5284  -11.1046   19.1543 He  0  0  0  0  0  0  0  0  0  0  0  0
  1 11  3  0
  1 13  3  0
  1 22  4  0
  2 11  1  0
  2 15  1  0
  3 10  2  0
  3 13  1  0
  3 14  2  0
  3 21  4  0
  3 24  1  0
  4  5  4  0
  4 11  2  0
  4 12  2  0
  4 13  3  0
  4 25  1  0
  4 28  4  0
  5 21  4  0
  5 24  4  0
  5 27  2  0
  6 10  3  0
  6 13  4  0
  6 19  1  0
  6 23  1  0
  6 24  4  0
  7 16  1  0
  7 19  4  0
  7 24  3  0
  7 25  1  0
  8 10  3  0
  8 18  3  0
  8 25  1  0
  8 28  2  0
  9 14  2  0
  9 15  2  0
  9 19  4  0
  9 23  2  0
 10 11  3  0
 10 16  1  0
 11 17  4  0
 11 22  1  0
 11 26  2  0
 12 14  2  0
 12 18  3  0
 12 24  1  0
 12 27  1  0
 12 29  1  0
 13 15  4  0
 13 21  1  0
 13 25  4  0
 13 27  1  0
 13 28  1  0
 14 16  2  0
 14 19  3  0
 14 26  4  0
 14 28  4  0
 15 16  4  0
 15 29  3  0
 16 18  1  0
 16 24  3  0
 17 27  2  0
 18 27  4  0
 19 20  4  0
 19 22  1  0
 19 23  4  0
 23 26  4  0
 23 29  1  0
 24 26  1  0
 24 27  3  0
 25 26  4  0
M  END
$$$$

 Created by Python create_sdf_string function

 34 37  0  0  0  0  0  0  0  0999 V2000
    9.2876   -3.3541   26.1698 C   0  0  0  0  0  0  0  0  0  0  0  0
   10.1817   -4.3891   26.0523 C   0  0  0  0  0  0  0  0  0  0  0  0
   10.0354   -6.0785   18.8507 C   0  0  0  0  0  0  0  0  0  0  0  0
    2.9541  -10.3373   18.2603 C   0  0  0  0  0  0  0  0  0  0  0  0
    8.6461   -4.7625   15.7229 O   0  0  0  0  0  0  0  0  0  0  0  0
    7.9692   -8.1402   14.8103 C   0  0  0  0  0  0  0  0  0  0  0  0
    2.8365  -11.1140   19.3949 N   0  0  0  0  0  0  0  0  0  0  0  0
   11.0271   -4.2383   22.3724 O   0  0  0  0  0  0  0  0  0  0  0  0
   10.5134   -5.5215   19.9684 C   0  0  0  0  0  0  0  0  0  0  0  0
    5.3074   -8.4877   16.4574 N   0  0  0  0  0  0  0  0  0  0  0  0
    8.7558   -5.6310   16.6386 C   0  0  0  0  0  0  0  0  0  0  0  0
   10.8225   -4.6310   24.8458 C   0  0  0  0  0  0  0  0  0  0  0  0
    7.9524   -6.7525   16.6333 N   0  0  0  0  0  0  0  0  0  0  0  0
   10.1788   -3.9793   17.8434 C   0  0  0  0  0  0  0  0  0  0  0  0
    6.6213   -6.8655   15.7527 C   0  0  0  0  0  0  0  0  0  0  0  0
    4.1773   -9.7720   17.9222 N   0  0  0  0  0  0  0  0  0  0  0  0
    1.9735   -9.1829   16.4023 C   0  0  0  0  0  0  0  0  0  0  0  0
   10.3982   -5.1766   27.1386 O   0  0  0  0  0  0  0  0  0  0  0  0
    8.1976   -7.9839   17.3072 C   0  0  0  0  0  0  0  0  0  0  0  0
   10.6960   -3.4856   18.9498 C   0  0  0  0  0  0  0  0  0  0  0  0
    7.7567   -8.8658   16.4985 C   0  0  0  0  0  0  0  0  0  0  0  0
   10.5932   -3.7866   23.7745 C   0  0  0  0  0  0  0  0  0  0  0  0
    9.8133   -2.6483   23.9255 C   0  0  0  0  0  0  0  0  0  0  0  0
    1.6205  -11.6702   19.6445 C   0  0  0  0  0  0  0  0  0  0  0  0
    9.1773   -2.4251   25.1237 C   0  0  0  0  0  0  0  0  0  0  0  0
   11.0944   -3.5555   21.3869 C   0  0  0  0  0  0  0  0  0  0  0  0
    0.7299  -10.7800   17.7622 C   0  0  0  0  0  0  0  0  0  0  0  0
    9.6547   -5.2941   17.7888 C   0  0  0  0  0  0  0  0  0  0  0  0
    4.1949   -9.0504   16.8929 C   0  0  0  0  0  0  0  0  0  0  0  0
    0.5793  -11.5155   18.8030 N   0  0  0  0  0  0  0  0  0  0  0  0
    3.1334   -8.6036   16.2173 C   0  0  0  0  0  0  0  0  0  0  0  0
    6.4604   -8.7044   16.2259 C   0  0  0  0  0  0  0  0  0  0  0  0
    1.8932  -10.0811   17.4503 C   0  0  0  0  0  0  0  0  0  0  0  0
   10.7746   -4.2438   20.0284 C   0  0  0  0  0  0  0  0  0  0  0  0
  1  2  4  0
  1 25  4  0
  2 12  4  0
  2 18  1  0
  3  9  4  0
  3 28  4  0
  4  7  4  0
  4 16  4  0
  4 33  4  0
  5 11  2  0
  6 21  1  0
  7 24  4  0
  8 22  1  0
  8 26  1  0
  9 34  4  0
 10 29  1  0
 10 32  1  0
 11 13  1  0
 11 28  1  0
 12 22  4  0
 13 15  1  0
 13 19  1  0
 14 20  4  0
 14 28  4  0
 16 29  4  0
 17 31  4  0
 17 33  4  0
 19 21  1  0
 20 34  4  0
 21 32  1  0
 22 23  4  0
 23 25  4  0
 24 30  4  0
 26 34  1  0
 27 30  4  0
 27 33  4  0
 29 31  4  0
M  END
$$$$

 Created by Python create_sdf_string function

 34 60  0  0  0  0  0  0  0  0999 V2000
    9.8012   -4.5169   26.2336 C   0  0  0  0  0  0  0  0  0  0  0  0
    9.3302   -5.6300   19.4438 C   0  0  0  0  0  0  0  0  0  0  0  0
    8.3990   -8.0415   15.2012 C   0  0  0  0  0  0  0  0  0  0  0  0
    2.9273  -11.1054   19.2889 N   0  0  0  0  0  0  0  0  0  0  0  0
   11.0211   -4.2628   21.8602 O   0  0  0  0  0  0  0  0  0  0  0  0
   10.7765   -5.4450   20.3216 C   0  0  0  0  0  0  0  0  0  0  0  0
    5.0261   -8.6352   16.3640 N   0  0  0  0  0  0  0  0  0  0  0  0
    8.8349   -5.5695   16.5370 C   0  0  0  0  0  0  0  0  0  0  0  0
   10.6099   -5.2508   24.5039 C   0  0  0  0  0  0  0  0  0  0  0  0
    7.6752   -6.9823   16.7189 N   0  0  0  0  0  0  0  0  0  0  0  0
   10.0312   -3.6670   17.8996 C   0  0  0  0  0  0  0  0  0  0  0  0
    5.5821   -6.9526   15.5583 O   0  0  0  0  0  0  0  0  0  0  0  0
    3.9040   -9.5567   18.0048 N   0  0  0  0  0  0  0  0  0  0  0  0
    1.9584   -8.6576   17.1880 P   0  0  0  0  0  0  0  0  0  0  0  0
   10.7458   -5.2257   26.9820 O   0  0  0  0  0  0  0  0  0  0  0  0
    8.2683   -7.4197   17.1332 Cl  0  0  0  0  0  0  0  0  0  0  0  0
   10.8401   -3.4202   19.3999 C   0  0  0  0  0  0  0  0  0  0  0  0
    8.0986   -8.7959   16.2963 C   0  0  0  0  0  0  0  0  0  0  0  0
   10.6801   -5.1247   23.7021 C   0  0  0  0  0  0  0  0  0  0  0  0
   10.0562   -2.8371   23.5206 C   0  0  0  0  0  0  0  0  0  0  0  0
    1.5998  -11.4965   19.7642 C   0  0  0  0  0  0  0  0  0  0  0  0
    0.7169  -10.8079   17.4039 C   0  0  0  0  0  0  0  0  0  0  0  0
    4.2496   -9.1032   16.9126 O   0  0  0  0  0  0  0  0  0  0  0  0
    0.0997  -11.2771   19.8662 N   0  0  0  0  0  0  0  0  0  0  0  0
    2.3690   -7.8723   16.0895 C   0  0  0  0  0  0  0  0  0  0  0  0
   10.5099   -4.1942   19.7670 C   0  0  0  0  0  0  0  0  0  0  0  0
    9.5510   -3.2719   26.2735 He  0  0  0  0  0  0  0  0  0  0  0  0
    3.0538  -11.0802   19.0297 He  0  0  0  0  0  0  0  0  0  0  0  0
    8.7920   -4.5275   16.0893 He  0  0  0  0  0  0  0  0  0  0  0  0
    9.5752   -2.3953   25.6402 He  0  0  0  0  0  0  0  0  0  0  0  0
   10.9815   -3.2805   21.1854 He  0  0  0  0  0  0  0  0  0  0  0  0
   10.4047   -5.3653   16.9412 He  0  0  0  0  0  0  0  0  0  0  0  0
    6.3813   -9.0816   16.3856 He  0  0  0  0  0  0  0  0  0  0  0  0
    1.6686   -9.9924   17.7195 He  0  0  0  0  0  0  0  0  0  0  0  0
  1  3  4  0
  1  5  1  0
  1  8  3  0
  1 10  3  0
  1 15  1  0
  1 20  3  0
  2  6  3  0
  2 10  2  0
  2 13  2  0
  2 14  4  0
  2 16  4  0
  2 19  2  0
  2 22  1  0
  2 25  4  0
  3  5  2  0
  3  7  4  0
  3 12  2  0
  3 15  3  0
  3 16  2  0
  3 18  1  0
  3 20  4  0
  4 13  3  0
  4 15  4  0
  4 21  4  0
  5  6  2  0
  5 24  2  0
  5 25  2  0
  6 21  2  0
  6 26  4  0
  7  8  3  0
  7  9  4  0
  7 17  4  0
  7 18  1  0
  7 21  1  0
  7 23  1  0
  8 10  1  0
  8 17  1  0
  9 11  4  0
  9 18  3  0
  9 23  3  0
 10 12  2  0
 10 14  4  0
 10 16  1  0
 10 20  2  0
 11 15  1  0
 11 17  4  0
 12 13  4  0
 12 18  1  0
 14 25  4  0
 15 20  2  0
 15 22  3  0
 15 26  2  0
 16 17  1  0
 17 20  1  0
 17 26  3  0
 18 25  1  0
 19 22  1  0
 21 24  4  0
 22 24  4  0
 25 26  2  0
M  END
$$$$

 Created by Python create_sdf_string function

 34 38  0  0  0  0  0  0  0  0999 V2000
    9.6260   -3.3174   26.0066 C   0  0  0  0  0  0  0  0  0  0  0  0
   10.3396   -4.4357   25.9207 C   0  0  0  0  0  0  0  0  0  0  0  0
    9.9309   -5.8392   18.8983 C   0  0  0  0  0  0  0  0  0  0  0  0
    2.8073  -10.4603   18.3659 C   0  0  0  0  0  0  0  0  0  0  0  0
    8.6942   -4.6275   15.6427 O   0  0  0  0  0  0  0  0  0  0  0  0
    8.3237   -8.1042   15.3268 C   0  0  0  0  0  0  0  0  0  0  0  0
    2.7385  -11.3031   19.4669 N   0  0  0  0  0  0  0  0  0  0  0  0
   11.2111   -4.4695   22.3142 C   0  0  0  0  0  0  0  0  0  0  0  0
   10.4393   -5.4004   19.9648 C   0  0  0  0  0  0  0  0  0  0  0  0
    5.2380   -8.6756   16.3376 N   0  0  0  0  0  0  0  0  0  0  0  0
    8.8075   -5.3563   16.6081 C   0  0  0  0  0  0  0  0  0  0  0  0
   10.9406   -4.8240   24.7526 C   0  0  0  0  0  0  0  0  0  0  0  0
    8.0021   -6.4912   16.7966 N   0  0  0  0  0  0  0  0  0  0  0  0
   10.2411   -3.8400   17.7423 C   0  0  0  0  0  0  0  0  0  0  0  0
    6.3469   -6.9279   16.0171 C   0  0  0  0  0  0  0  0  0  0  0  0
    4.0663   -9.9342   17.8549 N   0  0  0  0  0  0  0  0  0  0  0  0
    1.6630   -9.0597   16.7774 C   0  0  0  0  0  0  0  0  0  0  0  0
   10.4573   -5.1990   27.0603 O   0  0  0  0  0  0  0  0  0  0  0  0
    8.1726   -7.6058   17.1406 C   0  0  0  0  0  0  0  0  0  0  0  0
   10.8558   -3.2965   18.9558 C   0  0  0  0  0  0  0  0  0  0  0  0
    7.6232   -8.6904   16.1790 C   0  0  0  0  0  0  0  0  0  0  0  0
   10.7504   -3.9847   23.6673 C   0  0  0  0  0  0  0  0  0  0  0  0
   10.1210   -2.7663   23.8120 C   0  0  0  0  0  0  0  0  0  0  0  0
    1.5394  -11.6906   19.8584 C   0  0  0  0  0  0  0  0  0  0  0  0
    9.5077   -2.4114   25.0127 C   0  0  0  0  0  0  0  0  0  0  0  0
   11.1551   -3.5010   21.3985 C   0  0  0  0  0  0  0  0  0  0  0  0
    0.4652  -10.5751   18.1575 C   0  0  0  0  0  0  0  0  0  0  0  0
    9.7290   -5.0388   17.7900 C   0  0  0  0  0  0  0  0  0  0  0  0
    4.0470   -9.0929   16.9342 C   0  0  0  0  0  0  0  0  0  0  0  0
    0.4219  -11.4090   19.1948 N   0  0  0  0  0  0  0  0  0  0  0  0
    2.9126   -8.5343   16.4736 C   0  0  0  0  0  0  0  0  0  0  0  0
    6.2237   -8.6145   16.3282 C   0  0  0  0  0  0  0  0  0  0  0  0
    1.6631  -10.0311   17.7752 C   0  0  0  0  0  0  0  0  0  0  0  0
   10.7775   -4.0901   20.0700 C   0  0  0  0  0  0  0  0  0  0  0  0
  1  2  4  0
  1 25  4  0
  2 12  4  0
  2 18  1  0
  3  9  4  0
  3 28  4  0
  4  7  4  0
  4 16  4  0
  4 33  4  0
  5 11  2  0
  6 21  1  0
  7 24  4  0
  8 22  1  0
  8 26  1  0
  9 34  4  0
 10 29  1  0
 10 32  1  0
 11 13  1  0
 11 28  1  0
 12 22  4  0
 13 15  1  0
 13 19  1  0
 14 20  4  0
 14 28  4  0
 15 32  1  0
 16 29  4  0
 17 31  4  0
 17 33  4  0
 19 21  1  0
 20 34  4  0
 21 32  1  0
 22 23  4  0
 23 25  4  0
 24 30  4  0
 26 34  1  0
 27 30  4  0
 27 33  4  0
 29 31  4  0
M  END
$$$$

 Created by Python create_sdf_string function

 34 65  0  0  0  0  0  0  0  0999 V2000
    9.0700   -2.9025   26.3511 C   0  0  0  0  0  0  0  0  0  0  0  0
   10.5067   -4.6406   25.9457 C   0  0  0  0  0  0  0  0  0  0  0  0
   10.1384   -5.6308   18.4694 C   0  0  0  0  0  0  0  0  0  0  0  0
    7.8774   -4.5862   15.4461 O   0  0  0  0  0  0  0  0  0  0  0  0
    7.9384   -8.3201   15.3367 P   0  0  0  0  0  0  0  0  0  0  0  0
    2.9185  -10.9998   19.5093 N   0  0  0  0  0  0  0  0  0  0  0  0
   10.2729   -5.5997   19.9670 C   0  0  0  0  0  0  0  0  0  0  0  0
    5.2078   -9.0037   16.5809 N   0  0  0  0  0  0  0  0  0  0  0  0
    8.7277   -5.1600   16.4575 C   0  0  0  0  0  0  0  0  0  0  0  0
   10.4610   -3.7137   17.8946 C   0  0  0  0  0  0  0  0  0  0  0  0
    6.6184   -7.8239   16.7206 C   0  0  0  0  0  0  0  0  0  0  0  0
    3.7397   -9.8575   17.6973 N   0  0  0  0  0  0  0  0  0  0  0  0
    1.5796   -9.1479   16.5533 C   0  0  0  0  0  0  0  0  0  0  0  0
   10.5538   -5.2259   26.8379 O   0  0  0  0  0  0  0  0  0  0  0  0
   10.7134   -3.7317   18.8884 C   0  0  0  0  0  0  0  0  0  0  0  0
    7.4809   -8.2910   15.6911 C   0  0  0  0  0  0  0  0  0  0  0  0
   10.9416   -4.0967   23.4281 C   0  0  0  0  0  0  0  0  0  0  0  0
    9.9550   -2.4573   23.9689 C   0  0  0  0  0  0  0  0  0  0  0  0
    1.5603  -11.7809   19.5036 C   0  0  0  0  0  0  0  0  0  0  0  0
    9.3422   -2.3197   24.5167 C   0  0  0  0  0  0  0  0  0  0  0  0
   11.1184   -3.4072   21.6020 C   0  0  0  0  0  0  0  0  0  0  0  0
    0.3436  -10.5901   18.3667 C   0  0  0  0  0  0  0  0  0  0  0  0
    4.1114   -9.1265   17.1950 C   0  0  0  0  0  0  0  0  0  0  0  0
    2.9864   -8.9659   16.4351 C   0  0  0  0  0  0  0  0  0  0  0  0
    1.9180  -10.0562   18.5410 C   0  0  0  0  0  0  0  0  0  0  0  0
   10.6462   -4.1860   20.3232 C   0  0  0  0  0  0  0  0  0  0  0  0
    2.8464  -10.0348   18.1493 He  0  0  0  0  0  0  0  0  0  0  0  0
   11.3836   -4.2670   22.1133 He  0  0  0  0  0  0  0  0  0  0  0  0
   10.6664   -4.4318   24.1878 He  0  0  0  0  0  0  0  0  0  0  0  0
    7.5920   -6.0764   16.7064 He  0  0  0  0  0  0  0  0  0  0  0  0
    8.5368   -8.2033   17.7541 He  0  0  0  0  0  0  0  0  0  0  0  0
   10.0413   -5.2882   17.8904 He  0  0  0  0  0  0  0  0  0  0  0  0
    0.5861  -11.5286   19.5964 He  0  0  0  0  0  0  0  0  0  0  0  0
    5.6852   -8.6611   15.8532 He  0  0  0  0  0  0  0  0  0  0  0  0
  1  2  4  0
  1  3  3  0
  1 15  2  0
  2  8  3  0
  2 14  1  0
  3  7  4  0
  3 10  1  0
  3 24  2  0
  3 25  1  0
  4  5  2  0
  4  6  2  0
  4  7  2  0
  4  9  2  0
  4 11  3  0
  4 16  2  0
  4 23  3  0
  4 24  2  0
  5  7  3  0
  5 16  1  0
  5 20  2  0
  5 22  2  0
  6  8  2  0
  6 18  4  0
  6 19  4  0
  6 22  1  0
  8 10  4  0
  8 13  3  0
  8 19  4  0
  8 23  1  0
  8 25  1  0
  9 11  3  0
  9 13  4  0
 10 13  2  0
 10 15  4  0
 10 18  3  0
 10 20  2  0
 10 24  3  0
 11 13  4  0
 11 16  2  0
 11 17  2  0
 12 16  2  0
 12 19  3  0
 12 23  4  0
 13 21  3  0
 13 23  3  0
 13 24  4  0
 14 16  1  0
 14 18  1  0
 14 22  2  0
 14 26  3  0
 15 23  1  0
 15 26  4  0
 16 24  1  0
 16 26  1  0
 17 18  4  0
 17 20  1  0
 18 20  4  0
 18 22  1  0
 19 20  4  0
 20 24  1  0
 20 25  2  0
 21 26  1  0
 22 25  1  0
 23 25  2  0
 25 26  3  0
M  END
$$$$

 Created by Python create_sdf_string function

 34 37  0  0  0  0  0  0  0  0999 V2000
    9.4796   -3.1399   25.9391 C   0  0  0  0  0  0  0  0  0  0  0  0
   10.2624   -4.2167   25.8505 C   0  0  0  0  0  0  0  0  0  0  0  0
   10.0053   -5.9622   18.8354 C   0  0  0  0  0  0  0  0  0  0  0  0
    2.8056  -10.4903   18.3967 C   0  0  0  0  0  0  0  0  0  0  0  0
    8.3696   -4.6638   15.6749 O   0  0  0  0  0  0  0  0  0  0  0  0
    8.0010   -8.3675   15.2045 C   0  0  0  0  0  0  0  0  0  0  0  0
    2.7769  -11.3840   19.4980 N   0  0  0  0  0  0  0  0  0  0  0  0
   11.3085   -4.2206   22.2809 C   0  0  0  0  0  0  0  0  0  0  0  0
   10.5268   -5.4600   19.9344 C   0  0  0  0  0  0  0  0  0  0  0  0
    5.1474   -8.5620   16.4343 N   0  0  0  0  0  0  0  0  0  0  0  0
    8.6608   -5.4005   16.6356 C   0  0  0  0  0  0  0  0  0  0  0  0
   10.9308   -4.5430   24.7422 C   0  0  0  0  0  0  0  0  0  0  0  0
    7.8967   -6.5631   16.9157 N   0  0  0  0  0  0  0  0  0  0  0  0
   10.1315   -3.8831   17.7737 C   0  0  0  0  0  0  0  0  0  0  0  0
    6.5692   -6.9708   16.7898 C   0  0  0  0  0  0  0  0  0  0  0  0
    3.9534   -9.9181   17.9319 N   0  0  0  0  0  0  0  0  0  0  0  0
    1.5944   -9.3165   16.7377 C   0  0  0  0  0  0  0  0  0  0  0  0
   10.3995   -5.0323   27.0230 O   0  0  0  0  0  0  0  0  0  0  0  0
    8.3418   -7.9656   17.0715 C   0  0  0  0  0  0  0  0  0  0  0  0
   10.7879   -3.3551   18.8762 C   0  0  0  0  0  0  0  0  0  0  0  0
    7.6579   -8.5916   15.9568 C   0  0  0  0  0  0  0  0  0  0  0  0
   10.7539   -3.7074   23.6185 C   0  0  0  0  0  0  0  0  0  0  0  0
    9.9962   -2.5106   23.6907 C   0  0  0  0  0  0  0  0  0  0  0  0
    1.5996  -11.8109   19.9185 C   0  0  0  0  0  0  0  0  0  0  0  0
    9.3795   -2.2435   24.8531 C   0  0  0  0  0  0  0  0  0  0  0  0
   11.1676   -3.4963   21.2461 C   0  0  0  0  0  0  0  0  0  0  0  0
    0.4939  -10.6100   18.2686 C   0  0  0  0  0  0  0  0  0  0  0  0
    9.6679   -5.1085   17.7216 C   0  0  0  0  0  0  0  0  0  0  0  0
    4.0013   -9.1779   16.8989 C   0  0  0  0  0  0  0  0  0  0  0  0
    0.4393  -11.4728   19.3316 N   0  0  0  0  0  0  0  0  0  0  0  0
    2.8447   -8.8519   16.2371 C   0  0  0  0  0  0  0  0  0  0  0  0
    5.9713   -8.6353   16.0348 C   0  0  0  0  0  0  0  0  0  0  0  0
    1.6722  -10.1486   17.7998 C   0  0  0  0  0  0  0  0  0  0  0  0
   10.7983   -4.1333   20.0061 C   0  0  0  0  0  0  0  0  0  0  0  0
  1  2  4  0
  1 25  4  0
  2 12  4  0
  2 18  1  0
  3  9  4  0
  3 28  4  0
  4  7  4  0
  4 16  4  0
  4 33  4  0
  5 11  2  0
  6 21  1  0
  7 24  4  0
  8 22  1  0
  8 26  1  0
  9 34  4  0
 10 29  1  0
 10 32  1  0
 11 13  1  0
 11 28  1  0
 12 22  4  0
 13 15  1  0
 13 19  1  0
 14 20  4  0
 14 28  4  0
 16 29  4  0
 17 31  4  0
 17 33  4  0
 19 21  1  0
 20 34  4  0
 21 32  1  0
 22 23  4  0
 23 25  4  0
 24 30  4  0
 26 34  1  0
 27 30  4  0
 27 33  4  0
 29 31  4  0
M  END
$$$$

 Created by Python create_sdf_string function

 34 68  0  0  0  0  0  0  0  0999 V2000
    9.8797   -2.9770   25.8289 Se  0  0  0  0  0  0  0  0  0  0  0  0
   10.3127   -3.7787   26.3299 C   0  0  0  0  0  0  0  0  0  0  0  0
    2.7955  -10.3301   18.1059 C   0  0  0  0  0  0  0  0  0  0  0  0
    8.6252   -5.5237   15.8385 F   0  0  0  0  0  0  0  0  0  0  0  0
    2.8951  -11.4095   19.5466 C   0  0  0  0  0  0  0  0  0  0  0  0
   11.4665   -4.0660   22.2414 C   0  0  0  0  0  0  0  0  0  0  0  0
   10.3280   -5.7359   19.9980 C   0  0  0  0  0  0  0  0  0  0  0  0
    5.4434   -8.1437   16.8196 N   0  0  0  0  0  0  0  0  0  0  0  0
    8.6805   -5.6350   16.6131 C   0  0  0  0  0  0  0  0  0  0  0  0
   10.7565   -3.9151   25.4918 C   0  0  0  0  0  0  0  0  0  0  0  0
    7.8588   -6.0993   17.2552 N   0  0  0  0  0  0  0  0  0  0  0  0
   10.1265   -4.3871   17.4535 C   0  0  0  0  0  0  0  0  0  0  0  0
    6.2814   -7.0469   17.4109 C   0  0  0  0  0  0  0  0  0  0  0  0
    4.7629   -9.5806   17.6784 N   0  0  0  0  0  0  0  0  0  0  0  0
    1.4577   -9.8450   17.1457 C   0  0  0  0  0  0  0  0  0  0  0  0
    8.5360   -8.3696   17.1569 C   0  0  0  0  0  0  0  0  0  0  0  0
   10.8929   -3.1376   18.9017 C   0  0  0  0  0  0  0  0  0  0  0  0
   10.2069   -2.6465   23.5901 C   0  0  0  0  0  0  0  0  0  0  0  0
    1.7664  -11.7531   19.8138 C   0  0  0  0  0  0  0  0  0  0  0  0
    9.1387   -2.0949   25.2405 C   0  0  0  0  0  0  0  0  0  0  0  0
   11.0112   -3.6011   21.5174 C   0  0  0  0  0  0  0  0  0  0  0  0
    0.7037  -10.6744   18.2219 C   0  0  0  0  0  0  0  0  0  0  0  0
    9.4522   -5.0951   17.2856 C   0  0  0  0  0  0  0  0  0  0  0  0
    0.1871  -11.0395   19.4175 N   0  0  0  0  0  0  0  0  0  0  0  0
    2.8418   -8.5225   16.2642 C   0  0  0  0  0  0  0  0  0  0  0  0
    5.9349   -8.5893   15.1129 I   0  0  0  0  0  0  0  0  0  0  0  0
    1.8735  -10.6106   17.0444 C   0  0  0  0  0  0  0  0  0  0  0  0
    9.9095   -5.5895   19.3673 He  0  0  0  0  0  0  0  0  0  0  0  0
    7.3008   -8.6598   15.1235 He  0  0  0  0  0  0  0  0  0  0  0  0
   10.6088   -4.8121   27.3216 He  0  0  0  0  0  0  0  0  0  0  0  0
    7.2847   -8.5682   15.7211 He  0  0  0  0  0  0  0  0  0  0  0  0
   10.4731   -3.6439   23.4441 He  0  0  0  0  0  0  0  0  0  0  0  0
    3.8211   -9.2429   16.8213 He  0  0  0  0  0  0  0  0  0  0  0  0
   10.8353   -4.0032   19.9483 He  0  0  0  0  0  0  0  0  0  0  0  0
  1 11  1  0
  1 20  3  0
  1 25  3  0
  2  6  1  0
  2 10  4  0
  2 13  1  0
  2 16  1  0
  2 18  1  0
  2 20  3  0
  3  5  4  0
  3 11  2  0
  3 12  4  0
  3 14  4  0
  3 16  3  0
  3 22  3  0
  3 24  3  0
  3 27  4  0
  4  8  2  0
  4  9  2  0
  4 17  2  0
  4 20  3  0
  5  8  3  0
  5 14  3  0
  5 17  2  0
  5 19  4  0
  5 24  4  0
  6 21  1  0
  7 10  3  0
  7 13  1  0
  8 11  2  0
  8 13  2  0
  8 20  2  0
  8 23  4  0
  8 25  1  0
  9 10  1  0
  9 24  1  0
 10 15  3  0
 10 21  3  0
 10 26  1  0
 11 13  3  0
 11 16  1  0
 11 17  4  0
 11 20  4  0
 11 21  3  0
 11 22  2  0
 11 26  4  0
 12 17  4  0
 12 23  3  0
 13 16  2  0
 13 23  3  0
 15 17  1  0
 15 20  3  0
 15 27  4  0
 17 24  4  0
 18 20  4  0
 18 21  1  0
 18 23  3  0
 18 24  2  0
 19 20  4  0
 19 24  4  0
 19 25  4  0
 20 23  2  0
 20 24  2  0
 21 23  3  0
 22 24  4  0
 22 27  4  0
 23 24  3  0
 25 27  3  0
M  END
$$$$

 Created by Python create_sdf_string function

 34 38  0  0  0  0  0  0  0  0999 V2000
    9.5220   -2.7940   26.1162 C   0  0  0  0  0  0  0  0  0  0  0  0
   10.3489   -3.8705   26.0714 C   0  0  0  0  0  0  0  0  0  0  0  0
    9.8507   -5.9969   18.9718 C   0  0  0  0  0  0  0  0  0  0  0  0
    2.9399  -10.4643   18.2475 C   0  0  0  0  0  0  0  0  0  0  0  0
    8.6211   -5.3339   15.7356 O   0  0  0  0  0  0  0  0  0  0  0  0
    7.6450   -8.4989   15.1531 C   0  0  0  0  0  0  0  0  0  0  0  0
    2.9429  -11.2972   19.3491 C   0  0  0  0  0  0  0  0  0  0  0  0
   11.2139   -4.1596   22.4230 C   0  0  0  0  0  0  0  0  0  0  0  0
   10.3884   -5.3792   20.0290 C   0  0  0  0  0  0  0  0  0  0  0  0
    5.4742   -8.0512   16.8931 N   0  0  0  0  0  0  0  0  0  0  0  0
    8.6471   -5.7950   16.7499 C   0  0  0  0  0  0  0  0  0  0  0  0
   10.9441   -4.3004   24.8959 C   0  0  0  0  0  0  0  0  0  0  0  0
    7.8157   -6.8456   17.1476 N   0  0  0  0  0  0  0  0  0  0  0  0
   10.1604   -4.0153   17.7550 C   0  0  0  0  0  0  0  0  0  0  0  0
    6.4423   -7.0111   17.5041 C   0  0  0  0  0  0  0  0  0  0  0  0
    4.1096   -9.7917   17.8654 N   0  0  0  0  0  0  0  0  0  0  0  0
    1.7719   -9.3664   16.4593 C   0  0  0  0  0  0  0  0  0  0  0  0
   10.6133   -4.5365   27.3406 F   0  0  0  0  0  0  0  0  0  0  0  0
    8.2885   -8.2118   17.0286 C   0  0  0  0  0  0  0  0  0  0  0  0
   10.7763   -3.3983   18.8590 C   0  0  0  0  0  0  0  0  0  0  0  0
    7.2196   -8.7086   15.7082 C   0  0  0  0  0  0  0  0  0  0  0  0
   10.7136   -3.5891   23.7409 C   0  0  0  0  0  0  0  0  0  0  0  0
    9.9392   -2.4054   23.7667 C   0  0  0  0  0  0  0  0  0  0  0  0
    1.7525  -11.7831   19.8804 C   0  0  0  0  0  0  0  0  0  0  0  0
    9.3666   -2.0404   24.9853 C   0  0  0  0  0  0  0  0  0  0  0  0
   11.1110   -3.3961   21.2814 C   0  0  0  0  0  0  0  0  0  0  0  0
    0.6102  -10.7235   18.1583 C   0  0  0  0  0  0  0  0  0  0  0  0
    9.6050   -5.2840   17.8330 C   0  0  0  0  0  0  0  0  0  0  0  0
    4.1191   -9.0274   16.8989 C   0  0  0  0  0  0  0  0  0  0  0  0
    0.5788  -11.5081   19.2927 N   0  0  0  0  0  0  0  0  0  0  0  0
    3.0069   -8.7623   16.1200 C   0  0  0  0  0  0  0  0  0  0  0  0
    5.7439   -8.6243   15.7586 C   0  0  0  0  0  0  0  0  0  0  0  0
    1.7721  -10.1356   17.6179 C   0  0  0  0  0  0  0  0  0  0  0  0
   10.7684   -4.0889   20.0481 C   0  0  0  0  0  0  0  0  0  0  0  0
  1  2  4  0
  1 25  4  0
  2 12  4  0
  2 18  1  0
  3  9  4  0
  3 28  4  0
  4  7  4  0
  4 16  4  0
  4 33  4  0
  5 11  2  0
  6 21  1  0
  7 24  4  0
  8 22  1  0
  8 26  1  0
  9 34  4  0
 10 15  1  0
 10 29  1  0
 10 32  1  0
 11 13  1  0
 11 28  1  0
 12 22  4  0
 13 15  1  0
 13 19  1  0
 14 20  4  0
 14 28  4  0
 16 29  4  0
 17 31  4  0
 17 33  4  0
 19 21  1  0
 20 34  4  0
 21 32  1  0
 22 23  4  0
 23 25  4  0
 24 30  4  0
 26 34  1  0
 27 30  4  0
 27 33  4  0
 29 31  4  0
M  END
$$$$

 Created by Python create_sdf_string function

 34 71  0  0  0  0  0  0  0  0999 V2000
   10.5970   -2.7333   26.6033 C   0  0  0  0  0  0  0  0  0  0  0  0
   10.2355   -5.9784   19.3862 C   0  0  0  0  0  0  0  0  0  0  0  0
    7.8056   -5.1220   15.6086 O   0  0  0  0  0  0  0  0  0  0  0  0
    8.0996   -8.5207   15.3912 C   0  0  0  0  0  0  0  0  0  0  0  0
    2.8916  -11.2781   19.3321 C   0  0  0  0  0  0  0  0  0  0  0  0
   10.9592   -4.2364   22.4633 C   0  0  0  0  0  0  0  0  0  0  0  0
   10.7530   -5.0812   19.8625 C   0  0  0  0  0  0  0  0  0  0  0  0
    5.7287   -7.2272   16.8882 N   0  0  0  0  0  0  0  0  0  0  0  0
    8.5219   -5.9545   16.6871 C   0  0  0  0  0  0  0  0  0  0  0  0
   11.2311   -4.7764   24.6152 C   0  0  0  0  0  0  0  0  0  0  0  0
    6.8901   -6.5240   17.5255 N   0  0  0  0  0  0  0  0  0  0  0  0
    9.8152   -3.9498   17.6311 C   0  0  0  0  0  0  0  0  0  0  0  0
    2.1411   -9.3906   16.6561 C   0  0  0  0  0  0  0  0  0  0  0  0
   10.5869   -4.7617   26.9282 F   0  0  0  0  0  0  0  0  0  0  0  0
    8.6912   -7.8496   17.4041 C   0  0  0  0  0  0  0  0  0  0  0  0
   10.8677   -3.5487   18.8415 C   0  0  0  0  0  0  0  0  0  0  0  0
    7.2711   -8.4623   15.7017 C   0  0  0  0  0  0  0  0  0  0  0  0
   10.9411   -3.7286   24.0672 C   0  0  0  0  0  0  0  0  0  0  0  0
    9.9946   -2.3097   23.9019 C   0  0  0  0  0  0  0  0  0  0  0  0
    1.4426  -11.9542   19.8238 C   0  0  0  0  0  0  0  0  0  0  0  0
    9.5807   -1.7003   24.9881 S   0  0  0  0  0  0  0  0  0  0  0  0
   11.5346   -3.4003   21.2495 C   0  0  0  0  0  0  0  0  0  0  0  0
    0.9323  -10.6943   18.0128 C   0  0  0  0  0  0  0  0  0  0  0  0
    9.5031   -5.7454   18.4210 B   0  0  0  0  0  0  0  0  0  0  0  0
    4.1290   -8.6766   17.2243 P   0  0  0  0  0  0  0  0  0  0  0  0
    0.8203  -11.1322   19.1769 N   0  0  0  0  0  0  0  0  0  0  0  0
    3.1695   -9.5824   16.0604 C   0  0  0  0  0  0  0  0  0  0  0  0
    1.4961  -10.9532   18.1217 F   0  0  0  0  0  0  0  0  0  0  0  0
   10.3612   -3.7404   20.2565 C   0  0  0  0  0  0  0  0  0  0  0  0
   10.1200   -3.8664   25.7885 He  0  0  0  0  0  0  0  0  0  0  0  0
    3.2493  -10.7857   18.1553 He  0  0  0  0  0  0  0  0  0  0  0  0
    6.9630   -7.2448   17.5038 He  0  0  0  0  0  0  0  0  0  0  0  0
    3.8235  -10.0458   18.7233 He  0  0  0  0  0  0  0  0  0  0  0  0
    6.0966   -9.2899   16.1355 He  0  0  0  0  0  0  0  0  0  0  0  0
  1  6  4  0
  1  7  4  0
  1  9  1  0
  1 10  3  0
  1 15  4  0
  1 20  1  0
  1 24  1  0
  1 25  2  0
  2  7  4  0
  2 19  1  0
  2 24  1  0
  2 26  1  0
  3  8  1  0
  3 10  1  0
  3 16  2  0
  3 17  3  0
  3 21  2  0
  3 28  1  0
  4  6  4  0
  4  8  1  0
  4 15  2  0
  4 17  1  0
  4 24  3  0
  4 28  4  0
  5 18  4  0
  5 20  4  0
  6 18  1  0
  6 19  4  0
  6 22  1  0
  7 17  3  0
  7 18  4  0
  7 29  4  0
  8  9  1  0
  8 15  3  0
  8 21  4  0
  8 26  4  0
  9 11  1  0
  9 15  3  0
  9 25  3  0
 10 15  4  0
 10 17  3  0
 10 18  3  0
 10 24  3  0
 11 15  1  0
 11 19  2  0
 11 22  1  0
 11 24  3  0
 12 14  1  0
 12 16  4  0
 12 24  4  0
 13 27  4  0
 13 28  4  0
 14 20  2  0
 14 23  2  0
 14 29  4  0
 15 17  1  0
 15 24  1  0
 15 25  2  0
 15 27  4  0
 16 20  3  0
 16 21  4  0
 16 25  4  0
 16 29  4  0
 18 19  4  0
 19 20  4  0
 20 26  4  0
 22 29  3  0
 23 26  4  0
 23 28  4  0
 25 27  4  0
 25 29  1  0
M  END
$$$$

 Created by Python create_sdf_string function

 34 38  0  0  0  0  0  0  0  0999 V2000
    9.9949   -2.7494   26.2484 C   0  0  0  0  0  0  0  0  0  0  0  0
   10.5482   -3.9458   26.0328 C   0  0  0  0  0  0  0  0  0  0  0  0
    9.9535   -6.1006   19.0762 C   0  0  0  0  0  0  0  0  0  0  0  0
    2.9712  -10.5857   18.4589 C   0  0  0  0  0  0  0  0  0  0  0  0
    8.0917   -5.0601   15.8531 O   0  0  0  0  0  0  0  0  0  0  0  0
    8.3172   -8.3135   15.5231 C   0  0  0  0  0  0  0  0  0  0  0  0
    2.8919  -11.4498   19.5094 C   0  0  0  0  0  0  0  0  0  0  0  0
   11.1955   -4.1405   22.4004 C   0  0  0  0  0  0  0  0  0  0  0  0
   10.5787   -5.4598   20.0630 C   0  0  0  0  0  0  0  0  0  0  0  0
    5.3476   -7.7780   17.3739 N   0  0  0  0  0  0  0  0  0  0  0  0
    8.4196   -5.6665   16.9031 C   0  0  0  0  0  0  0  0  0  0  0  0
   10.9600   -4.4188   24.8358 C   0  0  0  0  0  0  0  0  0  0  0  0
    7.6678   -6.8168   17.3635 N   0  0  0  0  0  0  0  0  0  0  0  0
    9.9876   -4.0481   17.8816 C   0  0  0  0  0  0  0  0  0  0  0  0
    6.3806   -7.3594   17.3823 C   0  0  0  0  0  0  0  0  0  0  0  0
    4.1396   -9.9502   18.1625 N   0  0  0  0  0  0  0  0  0  0  0  0
    1.9889   -9.5294   16.5771 C   0  0  0  0  0  0  0  0  0  0  0  0
   10.7336   -4.7252   27.2007 F   0  0  0  0  0  0  0  0  0  0  0  0
    8.4971   -8.1609   16.9317 C   0  0  0  0  0  0  0  0  0  0  0  0
   10.6163   -3.4251   18.9251 C   0  0  0  0  0  0  0  0  0  0  0  0
    7.5064   -8.7005   16.0086 C   0  0  0  0  0  0  0  0  0  0  0  0
   10.7541   -3.6190   23.7050 C   0  0  0  0  0  0  0  0  0  0  0  0
   10.1658   -2.3553   23.8205 C   0  0  0  0  0  0  0  0  0  0  0  0
    1.6442  -11.9215   19.8993 C   0  0  0  0  0  0  0  0  0  0  0  0
    9.7949   -1.9253   25.1038 C   0  0  0  0  0  0  0  0  0  0  0  0
   11.1879   -3.3959   21.2803 C   0  0  0  0  0  0  0  0  0  0  0  0
    0.6197  -10.8481   18.1410 C   0  0  0  0  0  0  0  0  0  0  0  0
    9.4937   -5.3236   17.9449 C   0  0  0  0  0  0  0  0  0  0  0  0
    4.1643   -9.0199   17.2678 C   0  0  0  0  0  0  0  0  0  0  0  0
    0.5460  -11.6338   19.2216 N   0  0  0  0  0  0  0  0  0  0  0  0
    3.1826   -8.9037   16.3489 C   0  0  0  0  0  0  0  0  0  0  0  0
    6.2557   -9.0113   16.1325 C   0  0  0  0  0  0  0  0  0  0  0  0
    1.8449  -10.3338   17.6940 C   0  0  0  0  0  0  0  0  0  0  0  0
   10.8063   -4.1080   20.0421 C   0  0  0  0  0  0  0  0  0  0  0  0
  1  2  4  0
  1 25  4  0
  2 12  4  0
  2 18  1  0
  3  9  4  0
  3 28  4  0
  4  7  4  0
  4 16  4  0
  4 33  4  0
  5 11  2  0
  6 19  1  0
  6 21  1  0
  7 24  4  0
  8 22  1  0
  8 26  1  0
  9 34  4  0
 10 15  1  0
 10 29  1  0
 11 13  1  0
 11 28  1  0
 12 22  4  0
 13 15  1  0
 13 19  1  0
 14 20  4  0
 14 28  4  0
 16 29  4  0
 17 31  4  0
 17 33  4  0
 19 21  1  0
 20 34  4  0
 21 32  1  0
 22 23  4  0
 23 25  4  0
 24 30  4  0
 26 34  1  0
 27 30  4  0
 27 33  4  0
 29 31  4  0
M  END
$$$$

 Created by Python create_sdf_string function

 34 90  0  0  0  0  0  0  0  0999 V2000
    9.2924   -2.3789   25.9535 N   0  0  0  0  0  0  0  0  0  0  0  0
   10.8629   -3.7990   26.3425 C   0  0  0  0  0  0  0  0  0  0  0  0
    9.6611   -6.6021   19.2338 C   0  0  0  0  0  0  0  0  0  0  0  0
    2.7658  -10.5195   18.7190 C   0  0  0  0  0  0  0  0  0  0  0  0
    8.6729   -5.3565   16.6177 O   0  0  0  0  0  0  0  0  0  0  0  0
    8.4412   -7.9131   15.4207 C   0  0  0  0  0  0  0  0  0  0  0  0
    2.6760  -11.5035   19.4307 C   0  0  0  0  0  0  0  0  0  0  0  0
   10.9836   -4.0294   22.3921 Cl  0  0  0  0  0  0  0  0  0  0  0  0
   10.7520   -5.5665   19.9064 C   0  0  0  0  0  0  0  0  0  0  0  0
    5.1065   -8.1941   17.8239 N   0  0  0  0  0  0  0  0  0  0  0  0
   11.2890   -4.3123   24.8364 C   0  0  0  0  0  0  0  0  0  0  0  0
    7.3043   -6.8574   17.2486 N   0  0  0  0  0  0  0  0  0  0  0  0
   10.0723   -4.3325   18.0998 C   0  0  0  0  0  0  0  0  0  0  0  0
    6.0961   -8.0175   18.3013 C   0  0  0  0  0  0  0  0  0  0  0  0
    3.7213  -10.1422   18.7355 N   0  0  0  0  0  0  0  0  0  0  0  0
    2.4039   -9.6878   16.4596 C   0  0  0  0  0  0  0  0  0  0  0  0
   10.4521   -4.9620   27.1577 S   0  0  0  0  0  0  0  0  0  0  0  0
    8.6495   -8.1423   16.8270 F   0  0  0  0  0  0  0  0  0  0  0  0
   10.6386   -3.4204   18.7367 C   0  0  0  0  0  0  0  0  0  0  0  0
    7.4855   -8.5737   16.1886 C   0  0  0  0  0  0  0  0  0  0  0  0
   10.6833   -3.3035   23.8303 C   0  0  0  0  0  0  0  0  0  0  0  0
   10.3027   -2.2501   23.8800 C   0  0  0  0  0  0  0  0  0  0  0  0
    1.6450  -12.0376   19.6432 C   0  0  0  0  0  0  0  0  0  0  0  0
    9.7304   -1.7525   24.7805 F   0  0  0  0  0  0  0  0  0  0  0  0
   11.4258   -3.4262   21.3712 C   0  0  0  0  0  0  0  0  0  0  0  0
    0.6059  -10.9184   17.9347 C   0  0  0  0  0  0  0  0  0  0  0  0
   10.3247   -5.2739   17.6053 P   0  0  0  0  0  0  0  0  0  0  0  0
    4.1352   -9.0032   17.6546 C   0  0  0  0  0  0  0  0  0  0  0  0
    0.5450  -11.6206   19.6988 N   0  0  0  0  0  0  0  0  0  0  0  0
    3.4124   -8.9778   16.2457 C   0  0  0  0  0  0  0  0  0  0  0  0
    6.2138   -9.1087   16.1299 Cl  0  0  0  0  0  0  0  0  0  0  0  0
    1.9779  -10.4861   17.1088 C   0  0  0  0  0  0  0  0  0  0  0  0
   10.6358   -4.0408   20.0546 C   0  0  0  0  0  0  0  0  0  0  0  0
    8.6750   -5.6681   16.9457 He  0  0  0  0  0  0  0  0  0  0  0  0
  1  2  4  0
  1  8  4  0
  1 12  4  0
  1 19  2  0
  1 29  2  0
  1 33  2  0
  2  3  4  0
  2  4  4  0
  2  7  1  0
  2 11  4  0
  3 16  1  0
  3 19  4  0
  3 25  1  0
  3 27  4  0
  4  7  4  0
  4  8  4  0
  4 12  1  0
  4 19  3  0
  4 31  4  0
  5 14  4  0
  5 15  4  0
  5 25  3  0
  5 30  1  0
  5 31  3  0
  6  8  2  0
  6 11  4  0
  6 15  3  0
  6 17  1  0
  6 19  1  0
  6 20  1  0
  6 23  1  0
  6 24  3  0
  7 23  4  0
  8 17  2  0
  8 25  1  0
  8 26  3  0
  8 27  1  0
  9 27  4  0
  9 29  2  0
  9 33  4  0
 10 14  1  0
 10 16  3  0
 10 22  3  0
 10 24  1  0
 10 26  4  0
 10 28  1  0
 10 29  2  0
 10 32  2  0
 11 13  4  0
 11 16  3  0
 11 21  4  0
 11 32  4  0
 12 13  4  0
 12 17  1  0
 12 18  1  0
 12 26  1  0
 13 18  3  0
 13 19  4  0
 13 24  2  0
 13 28  3  0
 14 16  3  0
 15 22  4  0
 15 23  2  0
 15 28  4  0
 15 32  2  0
 16 25  2  0
 16 30  4  0
 16 32  4  0
 17 18  2  0
 17 19  4  0
 17 21  1  0
 17 25  3  0
 17 28  4  0
 18 22  1  0
 19 24  3  0
 19 33  4  0
 21 22  4  0
 21 26  1  0
 22 24  4  0
 22 25  3  0
 22 26  2  0
 23 27  4  0
 23 29  4  0
 25 33  1  0
 26 29  4  0
 26 31  1  0
 26 32  4  0
 28 30  4  0
 28 31  4  0
 29 30  4  0
M  END
$$$$

 Created by Python create_sdf_string function

 34 39  0  0  0  0  0  0  0  0999 V2000
    9.6669   -2.5823   26.0333 C   0  0  0  0  0  0  0  0  0  0  0  0
   10.3555   -3.7589   25.9453 C   0  0  0  0  0  0  0  0  0  0  0  0
   10.0107   -6.1726   19.0162 C   0  0  0  0  0  0  0  0  0  0  0  0
    2.8648  -10.6707   18.5645 C   0  0  0  0  0  0  0  0  0  0  0  0
    8.3637   -5.2527   15.9064 O   0  0  0  0  0  0  0  0  0  0  0  0
    8.2658   -8.1757   15.3815 C   0  0  0  0  0  0  0  0  0  0  0  0
    2.6654  -11.5565   19.6172 C   0  0  0  0  0  0  0  0  0  0  0  0
   11.1497   -4.1010   22.3528 O   0  0  0  0  0  0  0  0  0  0  0  0
   10.5751   -5.5003   20.0665 C   0  0  0  0  0  0  0  0  0  0  0  0
    5.3926   -8.2952   17.5672 N   0  0  0  0  0  0  0  0  0  0  0  0
    8.5918   -5.8307   16.9586 C   0  0  0  0  0  0  0  0  0  0  0  0
   10.9358   -4.2167   24.7769 C   0  0  0  0  0  0  0  0  0  0  0  0
    7.7229   -6.8639   17.5335 N   0  0  0  0  0  0  0  0  0  0  0  0
   10.1003   -4.1027   17.8684 C   0  0  0  0  0  0  0  0  0  0  0  0
    6.2953   -7.5361   18.1460 C   0  0  0  0  0  0  0  0  0  0  0  0
    4.0840   -9.9408   18.4284 N   0  0  0  0  0  0  0  0  0  0  0  0
    2.0973   -9.6057   16.6092 C   0  0  0  0  0  0  0  0  0  0  0  0
   10.5027   -4.6024   27.3188 C   0  0  0  0  0  0  0  0  0  0  0  0
    8.2830   -8.1969   17.0937 C   0  0  0  0  0  0  0  0  0  0  0  0
   10.7436   -3.4735   18.9065 C   0  0  0  0  0  0  0  0  0  0  0  0
    7.2776   -8.6865   16.0866 C   0  0  0  0  0  0  0  0  0  0  0  0
   10.7755   -3.4651   23.6625 C   0  0  0  0  0  0  0  0  0  0  0  0
   10.1531   -2.2300   23.6605 C   0  0  0  0  0  0  0  0  0  0  0  0
    1.3994  -12.0082   19.8789 C   0  0  0  0  0  0  0  0  0  0  0  0
    9.5871   -1.8050   24.8499 C   0  0  0  0  0  0  0  0  0  0  0  0
   11.2614   -3.4592   21.2724 C   0  0  0  0  0  0  0  0  0  0  0  0
    0.5860  -10.9743   18.0012 C   0  0  0  0  0  0  0  0  0  0  0  0
    9.6260   -5.4066   17.9567 C   0  0  0  0  0  0  0  0  0  0  0  0
    4.2610   -9.1050   17.5408 C   0  0  0  0  0  0  0  0  0  0  0  0
    0.3924  -11.7409   19.0692 N   0  0  0  0  0  0  0  0  0  0  0  0
    3.3488   -8.9570   16.5188 C   0  0  0  0  0  0  0  0  0  0  0  0
    6.2609   -9.0041   16.1456 C   0  0  0  0  0  0  0  0  0  0  0  0
    1.8354  -10.3871   17.7035 C   0  0  0  0  0  0  0  0  0  0  0  0
   10.8586   -4.1937   20.0596 C   0  0  0  0  0  0  0  0  0  0  0  0
  1  2  4  0
  1 25  4  0
  2 12  4  0
  2 18  1  0
  3  9  4  0
  3 28  4  0
  4  7  4  0
  4 16  4  0
  4 33  4  0
  5 11  2  0
  6 19  1  0
  6 21  1  0
  7 24  4  0
  8 22  1  0
  8 26  1  0
  9 34  4  0
 10 15  1  0
 10 29  1  0
 10 32  1  0
 11 13  1  0
 11 28  1  0
 12 22  4  0
 13 15  1  0
 13 19  1  0
 14 20  4  0
 14 28  4  0
 16 29  4  0
 17 31  4  0
 17 33  4  0
 19 21  1  0
 20 34  4  0
 21 32  1  0
 22 23  4  0
 23 25  4  0
 24 30  4  0
 26 34  1  0
 27 30  4  0
 27 33  4  0
 29 31  4  0
M  END
$$$$

 Created by Python create_sdf_string function

 34 73  0  0  0  0  0  0  0  0999 V2000
   10.0305   -2.1698   26.0295 O   0  0  0  0  0  0  0  0  0  0  0  0
   10.5638   -3.9841   25.9441 C   0  0  0  0  0  0  0  0  0  0  0  0
    2.6303  -10.4400   18.3679 C   0  0  0  0  0  0  0  0  0  0  0  0
    8.3296   -4.8391   15.7016 O   0  0  0  0  0  0  0  0  0  0  0  0
    8.9453   -8.4913   15.5867 C   0  0  0  0  0  0  0  0  0  0  0  0
    2.7060  -11.6249   19.6832 C   0  0  0  0  0  0  0  0  0  0  0  0
   10.9488   -4.0301   22.4155 O   0  0  0  0  0  0  0  0  0  0  0  0
   10.8441   -5.3945   19.8166 C   0  0  0  0  0  0  0  0  0  0  0  0
    5.2249   -8.8704   17.5985 N   0  0  0  0  0  0  0  0  0  0  0  0
    7.9638   -6.9795   17.0089 N   0  0  0  0  0  0  0  0  0  0  0  0
   10.2050   -4.1033   17.7268 C   0  0  0  0  0  0  0  0  0  0  0  0
    5.8850   -7.4746   18.1354 C   0  0  0  0  0  0  0  0  0  0  0  0
    4.1878  -10.1992   18.4228 N   0  0  0  0  0  0  0  0  0  0  0  0
   10.5063   -4.8189   26.5926 C   0  0  0  0  0  0  0  0  0  0  0  0
    7.8805   -7.9906   16.8594 F   0  0  0  0  0  0  0  0  0  0  0  0
   10.7954   -3.4405   18.5447 C   0  0  0  0  0  0  0  0  0  0  0  0
    7.1971   -8.8443   16.0578 C   0  0  0  0  0  0  0  0  0  0  0  0
   11.0124   -3.4924   24.0386 C   0  0  0  0  0  0  0  0  0  0  0  0
   10.2817   -1.7954   23.7306 C   0  0  0  0  0  0  0  0  0  0  0  0
    1.0074  -11.9193   19.7123 C   0  0  0  0  0  0  0  0  0  0  0  0
    9.5211   -1.5420   24.9362 C   0  0  0  0  0  0  0  0  0  0  0  0
   11.2887   -3.4628   21.0139 C   0  0  0  0  0  0  0  0  0  0  0  0
    0.3322  -11.0395   17.7872 C   0  0  0  0  0  0  0  0  0  0  0  0
    9.3023   -5.0618   17.9177 C   0  0  0  0  0  0  0  0  0  0  0  0
    4.3388   -9.0669   17.6139 C   0  0  0  0  0  0  0  0  0  0  0  0
    3.7074   -9.4694   16.1620 C   0  0  0  0  0  0  0  0  0  0  0  0
    6.4919   -8.9804   16.8393 C   0  0  0  0  0  0  0  0  0  0  0  0
    2.1899  -10.0189   17.8520 C   0  0  0  0  0  0  0  0  0  0  0  0
   10.9431   -4.2898   20.0549 C   0  0  0  0  0  0  0  0  0  0  0  0
    9.8621   -6.5387   19.2620 He  0  0  0  0  0  0  0  0  0  0  0  0
    8.6066   -5.8042   16.9360 He  0  0  0  0  0  0  0  0  0  0  0  0
   10.9699   -3.7765   25.3155 He  0  0  0  0  0  0  0  0  0  0  0  0
    2.0536   -8.7977   16.0799 He  0  0  0  0  0  0  0  0  0  0  0  0
    0.3532  -12.1514   19.1969 He  0  0  0  0  0  0  0  0  0  0  0  0
  1  2  4  0
  1  3  3  0
  1  5  4  0
  1 19  1  0
  1 21  4  0
  1 27  2  0
  2  4  3  0
  2  7  3  0
  2  9  3  0
  2 14  1  0
  2 21  4  0
  2 24  3  0
  3  4  1  0
  3  6  4  0
  3 13  4  0
  3 19  4  0
  3 24  4  0
  4 13  2  0
  4 14  2  0
  5  8  4  0
  5 15  1  0
  5 17  1  0
  5 18  4  0
  5 27  3  0
  6 18  4  0
  6 20  4  0
  6 21  4  0
  7 10  2  0
  7 12  4  0
  7 18  1  0
  7 23  3  0
  7 26  4  0
  8 24  1  0
  8 29  4  0
  9 12  3  0
  9 15  1  0
  9 23  1  0
  9 24  2  0
  9 25  1  0
 10 12  1  0
 10 20  4  0
 10 21  2  0
 11 16  4  0
 11 24  4  0
 11 28  4  0
 12 27  2  0
 13 17  2  0
 13 19  4  0
 13 24  4  0
 13 25  1  0
 13 27  1  0
 14 27  4  0
 15 17  4  0
 15 22  2  0
 15 24  3  0
 15 25  4  0
 16 26  1  0
 16 29  4  0
 17 20  1  0
 17 21  4  0
 17 27  2  0
 17 29  2  0
 18 23  4  0
 19 25  3  0
 19 27  3  0
 20 21  1  0
 21 25  3  0
 22 26  4  0
 22 29  1  0
 23 28  2  0
 24 26  1  0
 24 28  3  0
 26 28  2  0
M  END
$$$$

 Created by Python create_sdf_string function

 34 39  0  0  0  0  0  0  0  0999 V2000
    9.8432   -2.4544   25.9884 C   0  0  0  0  0  0  0  0  0  0  0  0
   10.4325   -3.7013   25.9129 C   0  0  0  0  0  0  0  0  0  0  0  0
    9.8760   -6.0845   18.9412 C   0  0  0  0  0  0  0  0  0  0  0  0
    2.8096  -10.6630   18.5033 C   0  0  0  0  0  0  0  0  0  0  0  0
    8.2306   -5.0653   15.8421 O   0  0  0  0  0  0  0  0  0  0  0  0
    8.5163   -8.2823   15.5057 C   0  0  0  0  0  0  0  0  0  0  0  0
    2.5375  -11.5332   19.5442 C   0  0  0  0  0  0  0  0  0  0  0  0
   11.0543   -4.0369   22.3218 O   0  0  0  0  0  0  0  0  0  0  0  0
   10.5009   -5.4593   20.0366 C   0  0  0  0  0  0  0  0  0  0  0  0
    5.5553   -8.5920   17.3748 N   0  0  0  0  0  0  0  0  0  0  0  0
    8.4890   -5.7010   16.8706 C   0  0  0  0  0  0  0  0  0  0  0  0
   10.9109   -4.1564   24.7199 C   0  0  0  0  0  0  0  0  0  0  0  0
    7.7339   -6.8116   17.2335 N   0  0  0  0  0  0  0  0  0  0  0  0
   10.1063   -4.0472   17.7855 C   0  0  0  0  0  0  0  0  0  0  0  0
    6.1475   -7.3280   17.8387 C   0  0  0  0  0  0  0  0  0  0  0  0
    4.1359  -10.0422   18.3775 N   0  0  0  0  0  0  0  0  0  0  0  0
    2.0978   -9.5069   16.5420 C   0  0  0  0  0  0  0  0  0  0  0  0
   10.5320   -4.4548   27.1452 C   0  0  0  0  0  0  0  0  0  0  0  0
    8.3759   -8.0089   16.7792 C   0  0  0  0  0  0  0  0  0  0  0  0
   10.7389   -3.4325   18.8643 C   0  0  0  0  0  0  0  0  0  0  0  0
    7.4242   -8.9942   15.9822 C   0  0  0  0  0  0  0  0  0  0  0  0
   10.7439   -3.3929   23.6044 C   0  0  0  0  0  0  0  0  0  0  0  0
   10.2089   -2.1042   23.6948 C   0  0  0  0  0  0  0  0  0  0  0  0
    1.2300  -12.0484   19.7087 C   0  0  0  0  0  0  0  0  0  0  0  0
    9.7565   -1.6361   24.8927 C   0  0  0  0  0  0  0  0  0  0  0  0
   11.2596   -3.4726   21.2352 C   0  0  0  0  0  0  0  0  0  0  0  0
    0.5291  -10.8916   17.8146 C   0  0  0  0  0  0  0  0  0  0  0  0
    9.5517   -5.2989   17.8683 C   0  0  0  0  0  0  0  0  0  0  0  0
    4.3420   -9.2284   17.4427 C   0  0  0  0  0  0  0  0  0  0  0  0
    0.2572  -11.7224   18.8709 N   0  0  0  0  0  0  0  0  0  0  0  0
    3.3647   -8.9622   16.5130 C   0  0  0  0  0  0  0  0  0  0  0  0
    6.4558   -9.3215   16.5438 C   0  0  0  0  0  0  0  0  0  0  0  0
    1.8184  -10.3560   17.6255 C   0  0  0  0  0  0  0  0  0  0  0  0
   10.8292   -4.1649   19.9831 C   0  0  0  0  0  0  0  0  0  0  0  0
  1  2  4  0
  1 25  4  0
  2 12  4  0
  2 18  1  0
  3  9  4  0
  3 28  4  0
  4  7  4  0
  4 16  4  0
  4 33  4  0
  5 11  2  0
  6 19  1  0
  6 21  1  0
  7 24  4  0
  8 22  1  0
  8 26  1  0
  9 34  4  0
 10 15  1  0
 10 29  1  0
 10 32  1  0
 11 13  1  0
 11 28  1  0
 12 22  4  0
 13 15  1  0
 13 19  1  0
 14 20  4  0
 14 28  4  0
 16 29  4  0
 17 31  4  0
 17 33  4  0
 19 21  1  0
 20 34  4  0
 21 32  1  0
 22 23  4  0
 23 25  4  0
 24 30  4  0
 26 34  1  0
 27 30  4  0
 27 33  4  0
 29 31  4  0
M  END
$$$$

 Created by Python create_sdf_string function

 34 78  0  0  0  0  0  0  0  0999 V2000
   10.2347   -2.7918   25.8461 C   0  0  0  0  0  0  0  0  0  0  0  0
   10.2282   -3.8335   26.1854 C   0  0  0  0  0  0  0  0  0  0  0  0
    9.7206   -5.7983   18.6110 C   0  0  0  0  0  0  0  0  0  0  0  0
    3.1174  -10.9370   18.4477 I   0  0  0  0  0  0  0  0  0  0  0  0
    8.5950   -8.0987   15.7222 F   0  0  0  0  0  0  0  0  0  0  0  0
    2.5957  -11.1981   19.5313 C   0  0  0  0  0  0  0  0  0  0  0  0
   10.9586   -4.1451   22.3483 O   0  0  0  0  0  0  0  0  0  0  0  0
   10.1870   -5.6912   20.1532 C   0  0  0  0  0  0  0  0  0  0  0  0
    8.5242   -5.4990   16.8464 P   0  0  0  0  0  0  0  0  0  0  0  0
    7.1655   -7.4890   17.3811 N   0  0  0  0  0  0  0  0  0  0  0  0
   10.4131   -4.2246   17.6241 C   0  0  0  0  0  0  0  0  0  0  0  0
    6.0452   -7.0874   17.8611 C   0  0  0  0  0  0  0  0  0  0  0  0
    3.4824   -9.4296   18.7897 N   0  0  0  0  0  0  0  0  0  0  0  0
    1.9811   -9.8771   16.7672 C   0  0  0  0  0  0  0  0  0  0  0  0
   11.0062   -5.0315   26.9405 C   0  0  0  0  0  0  0  0  0  0  0  0
    8.5233   -8.3419   16.4083 F   0  0  0  0  0  0  0  0  0  0  0  0
   10.7378   -3.6731   18.6900 C   0  0  0  0  0  0  0  0  0  0  0  0
    7.5191   -9.3109   15.8545 C   0  0  0  0  0  0  0  0  0  0  0  0
   10.4687   -3.4518   23.3674 C   0  0  0  0  0  0  0  0  0  0  0  0
   10.2915   -2.0716   23.6013 C   0  0  0  0  0  0  0  0  0  0  0  0
    1.3719  -12.1854   19.8170 C   0  0  0  0  0  0  0  0  0  0  0  0
   11.3453   -3.7867   21.0284 C   0  0  0  0  0  0  0  0  0  0  0  0
    0.5961  -10.9793   17.7938 C   0  0  0  0  0  0  0  0  0  0  0  0
    4.4893   -9.0846   17.7632 C   0  0  0  0  0  0  0  0  0  0  0  0
    0.1140  -11.6562   18.4783 P   0  0  0  0  0  0  0  0  0  0  0  0
    2.9315   -9.4278   16.5753 C   0  0  0  0  0  0  0  0  0  0  0  0
    6.9423   -9.6095   16.9131 C   0  0  0  0  0  0  0  0  0  0  0  0
    1.7183   -9.6281   17.5885 C   0  0  0  0  0  0  0  0  0  0  0  0
   10.7858   -4.2557   20.2054 C   0  0  0  0  0  0  0  0  0  0  0  0
    8.0039   -4.4927   16.0064 He  0  0  0  0  0  0  0  0  0  0  0  0
    5.3950   -9.0296   17.0866 He  0  0  0  0  0  0  0  0  0  0  0  0
   10.7983   -4.1973   24.8843 He  0  0  0  0  0  0  0  0  0  0  0  0
   10.2079   -1.6969   25.0389 He  0  0  0  0  0  0  0  0  0  0  0  0
    9.3961   -5.8952   18.1192 He  0  0  0  0  0  0  0  0  0  0  0  0
  1  2  4  0
  1  4  2  0
  1  9  1  0
  1 15  3  0
  1 17  1  0
  1 19  2  0
  2  4  1  0
  2 10  4  0
  2 11  2  0
  2 26  2  0
  3 12  1  0
  3 15  2  0
  3 18  2  0
  3 19  3  0
  3 25  4  0
  3 28  2  0
  4  6  4  0
  4  8  3  0
  4 13  4  0
  4 16  2  0
  4 25  3  0
  4 28  4  0
  5 16  1  0
  5 18  1  0
  5 23  4  0
  5 27  3  0
  6 16  2  0
  6 17  4  0
  6 21  4  0
  6 25  2  0
  7 19  1  0
  7 22  1  0
  8 13  2  0
  8 25  1  0
  8 29  4  0
  9 10  2  0
  9 13  4  0
  9 16  2  0
 10 12  1  0
 10 15  4  0
 10 16  4  0
 10 17  1  0
 11 16  2  0
 11 17  4  0
 11 26  1  0
 12 18  4  0
 12 26  2  0
 12 29  1  0
 13 19  2  0
 13 21  2  0
 13 23  3  0
 13 25  2  0
 13 26  4  0
 13 29  3  0
 14 15  2  0
 14 18  4  0
 14 28  4  0
 15 18  3  0
 15 26  1  0
 16 18  1  0
 16 26  4  0
 17 25  4  0
 17 29  4  0
 18 19  3  0
 18 20  4  0
 19 20  4  0
 19 21  4  0
 19 26  1  0
 20 28  1  0
 21 25  4  0
 22 26  3  0
 22 27  2  0
 22 29  1  0
 23 25  4  0
 23 28  4  0
 24 25  1  0
 24 26  4  0
 26 27  2  0
M  END
$$$$

 Created by Python create_sdf_string function

 34 39  0  0  0  0  0  0  0  0999 V2000
   10.0975   -2.5323   26.0160 C   0  0  0  0  0  0  0  0  0  0  0  0
   10.5368   -3.8338   25.8677 C   0  0  0  0  0  0  0  0  0  0  0  0
    9.7250   -6.2122   18.9338 C   0  0  0  0  0  0  0  0  0  0  0  0
    2.7610  -10.6429   18.5383 C   0  0  0  0  0  0  0  0  0  0  0  0
    8.0171   -5.1332   15.9164 O   0  0  0  0  0  0  0  0  0  0  0  0
    8.5644   -8.1721   15.5007 C   0  0  0  0  0  0  0  0  0  0  0  0
    2.4791  -11.5478   19.5253 C   0  0  0  0  0  0  0  0  0  0  0  0
   10.8473   -4.1630   22.2335 O   0  0  0  0  0  0  0  0  0  0  0  0
   10.3669   -5.5825   19.9915 C   0  0  0  0  0  0  0  0  0  0  0  0
    5.5952   -8.7019   17.2456 C   0  0  0  0  0  0  0  0  0  0  0  0
    8.3005   -5.8560   16.8924 C   0  0  0  0  0  0  0  0  0  0  0  0
   10.8548   -4.3484   24.6293 C   0  0  0  0  0  0  0  0  0  0  0  0
    7.5419   -6.9452   17.1821 N   0  0  0  0  0  0  0  0  0  0  0  0
   10.0898   -4.2062   17.7438 C   0  0  0  0  0  0  0  0  0  0  0  0
    6.1973   -7.3994   17.6802 C   0  0  0  0  0  0  0  0  0  0  0  0
    4.0534  -10.0447   18.3750 N   0  0  0  0  0  0  0  0  0  0  0  0
    2.0891   -9.3368   16.6409 C   0  0  0  0  0  0  0  0  0  0  0  0
   10.6784   -4.6320   27.0885 C   0  0  0  0  0  0  0  0  0  0  0  0
    8.3237   -8.1802   16.4444 C   0  0  0  0  0  0  0  0  0  0  0  0
   10.7358   -3.6496   18.7641 C   0  0  0  0  0  0  0  0  0  0  0  0
    7.6154   -9.1194   15.9345 C   0  0  0  0  0  0  0  0  0  0  0  0
   10.6923   -3.5366   23.5365 C   0  0  0  0  0  0  0  0  0  0  0  0
   10.3005   -2.2039   23.6164 C   0  0  0  0  0  0  0  0  0  0  0  0
    1.2377  -12.0787   19.6929 C   0  0  0  0  0  0  0  0  0  0  0  0
    9.9447   -1.7252   24.8801 C   0  0  0  0  0  0  0  0  0  0  0  0
   11.2078   -3.5969   21.1851 C   0  0  0  0  0  0  0  0  0  0  0  0
    0.5204  -10.9031   17.8146 C   0  0  0  0  0  0  0  0  0  0  0  0
    9.4214   -5.4587   17.8422 C   0  0  0  0  0  0  0  0  0  0  0  0
    4.3700   -9.2002   17.4553 C   0  0  0  0  0  0  0  0  0  0  0  0
    0.2725  -11.7836   18.8303 N   0  0  0  0  0  0  0  0  0  0  0  0
    3.4372   -8.8711   16.6087 C   0  0  0  0  0  0  0  0  0  0  0  0
    6.4596   -9.6640   16.6017 C   0  0  0  0  0  0  0  0  0  0  0  0
    1.7653  -10.3222   17.6356 C   0  0  0  0  0  0  0  0  0  0  0  0
   10.7755   -4.3174   19.9237 C   0  0  0  0  0  0  0  0  0  0  0  0
  1  2  4  0
  1 25  4  0
  2 12  4  0
  2 18  1  0
  3  9  4  0
  3 28  4  0
  4  7  4  0
  4 16  4  0
  4 33  4  0
  5 11  2  0
  6 19  1  0
  6 21  1  0
  7 24  4  0
  8 22  1  0
  8 26  1  0
  9 34  4  0
 10 15  1  0
 10 29  1  0
 10 32  1  0
 11 13  1  0
 11 28  1  0
 12 22  4  0
 13 15  1  0
 13 19  1  0
 14 20  4  0
 14 28  4  0
 16 29  4  0
 17 31  4  0
 17 33  4  0
 19 21  1  0
 20 34  4  0
 21 32  1  0
 22 23  4  0
 23 25  4  0
 24 30  4  0
 26 34  1  0
 27 30  4  0
 27 33  4  0
 29 31  4  0
M  END
$$$$

 Created by Python create_sdf_string function

 34 83  0  0  0  0  0  0  0  0999 V2000
    9.6504   -2.3693   25.5099 C   0  0  0  0  0  0  0  0  0  0  0  0
   10.4147   -4.1241   26.0076 C   0  0  0  0  0  0  0  0  0  0  0  0
    3.0398  -10.7290   18.3237 Se  0  0  0  0  0  0  0  0  0  0  0  0
    7.4317   -5.1627   15.7633 S   0  0  0  0  0  0  0  0  0  0  0  0
    8.6955   -8.0082   15.4700 C   0  0  0  0  0  0  0  0  0  0  0  0
    2.6475  -11.5685   19.8463 C   0  0  0  0  0  0  0  0  0  0  0  0
   10.3796   -5.4914   19.9690 C   0  0  0  0  0  0  0  0  0  0  0  0
    5.8262   -8.9498   16.9737 C   0  0  0  0  0  0  0  0  0  0  0  0
    8.1325   -5.6487   16.7755 C   0  0  0  0  0  0  0  0  0  0  0  0
   10.6534   -4.8777   24.4784 C   0  0  0  0  0  0  0  0  0  0  0  0
    8.4646   -7.5635   17.3125 N   0  0  0  0  0  0  0  0  0  0  0  0
   10.2415   -4.0851   17.7696 C   0  0  0  0  0  0  0  0  0  0  0  0
    6.1331   -7.1409   17.3262 C   0  0  0  0  0  0  0  0  0  0  0  0
    4.2434  -10.0413   19.0500 N   0  0  0  0  0  0  0  0  0  0  0  0
    1.9768   -8.9477   16.5532 C   0  0  0  0  0  0  0  0  0  0  0  0
   10.7828   -5.0787   26.9975 C   0  0  0  0  0  0  0  0  0  0  0  0
    8.9126   -7.6012   16.9097 C   0  0  0  0  0  0  0  0  0  0  0  0
   10.5579   -3.6170   19.0262 Cl  0  0  0  0  0  0  0  0  0  0  0  0
   10.7757   -3.1327   23.5731 C   0  0  0  0  0  0  0  0  0  0  0  0
   10.2010   -2.2720   23.4019 C   0  0  0  0  0  0  0  0  0  0  0  0
    1.1922  -12.1967   19.8585 C   0  0  0  0  0  0  0  0  0  0  0  0
    9.7211   -2.3463   25.1693 C   0  0  0  0  0  0  0  0  0  0  0  0
   11.1049   -3.4400   21.3623 C   0  0  0  0  0  0  0  0  0  0  0  0
    0.5115  -11.0015   17.8734 C   0  0  0  0  0  0  0  0  0  0  0  0
    9.5591   -4.8253   18.0751 F   0  0  0  0  0  0  0  0  0  0  0  0
    4.5506   -9.3736   17.5871 C   0  0  0  0  0  0  0  0  0  0  0  0
    0.7734  -12.4755   18.4983 N   0  0  0  0  0  0  0  0  0  0  0  0
    3.5618   -8.8882   16.8219 C   0  0  0  0  0  0  0  0  0  0  0  0
    6.3491   -9.7688   16.5388 C   0  0  0  0  0  0  0  0  0  0  0  0
    1.5342   -9.7232   17.7038 C   0  0  0  0  0  0  0  0  0  0  0  0
   10.8427   -4.3135   19.9067 C   0  0  0  0  0  0  0  0  0  0  0  0
    9.8102   -6.0845   18.8670 He  0  0  0  0  0  0  0  0  0  0  0  0
   10.4285   -4.2073   22.5607 He  0  0  0  0  0  0  0  0  0  0  0  0
    7.4857   -9.2446   15.7292 He  0  0  0  0  0  0  0  0  0  0  0  0
  1  4  3  0
  1 22  4  0
  1 24  1  0
  1 29  1  0
  2  4  1  0
  2 10  4  0
  2 16  1  0
  2 28  3  0
  2 29  2  0
  3 13  3  0
  3 14  4  0
  3 16  2  0
  3 30  4  0
  4  8  4  0
  4  9  2  0
  4 20  1  0
  4 29  2  0
  5 13  2  0
  5 17  1  0
  5 23  3  0
  6 14  1  0
  6 16  3  0
  6 17  2  0
  6 21  4  0
  6 23  1  0
  7 20  1  0
  7 27  3  0
  7 31  4  0
  8 10  4  0
  8 11  4  0
  8 13  1  0
  8 26  1  0
  8 29  1  0
  9 11  1  0
  9 25  1  0
 10 15  1  0
 10 18  4  0
 10 19  4  0
 10 27  4  0
 11 15  3  0
 11 17  1  0
 11 31  3  0
 12 18  4  0
 12 22  1  0
 12 25  2  0
 12 27  4  0
 12 28  4  0
 13 16  3  0
 13 26  1  0
 14 17  2  0
 14 19  2  0
 14 25  4  0
 14 26  4  0
 14 27  1  0
 14 28  3  0
 14 30  4  0
 15 20  2  0
 15 30  4  0
 16 18  3  0
 16 20  1  0
 16 28  2  0
 17 27  3  0
 18 28  2  0
 18 30  3  0
 18 31  4  0
 19 20  4  0
 19 22  1  0
 19 25  2  0
 19 26  4  0
 19 31  3  0
 20 22  4  0
 20 31  1  0
 21 23  1  0
 21 27  4  0
 22 24  4  0
 22 31  4  0
 23 25  4  0
 23 27  4  0
 23 31  1  0
 24 27  3  0
 24 30  4  0
 26 28  4  0
 26 29  2  0
M  END
$$$$

 Created by Python create_sdf_string function

 34 38  0  0  0  0  0  0  0  0999 V2000
    9.7524   -2.7597   26.0420 C   0  0  0  0  0  0  0  0  0  0  0  0
   10.3777   -3.9865   25.9037 C   0  0  0  0  0  0  0  0  0  0  0  0
    9.7821   -6.0915   18.8923 C   0  0  0  0  0  0  0  0  0  0  0  0
    2.9353  -10.6628   18.5637 C   0  0  0  0  0  0  0  0  0  0  0  0
    7.9284   -5.1004   15.9704 O   0  0  0  0  0  0  0  0  0  0  0  0
    8.3667   -8.2773   15.2497 C   0  0  0  0  0  0  0  0  0  0  0  0
    2.6329  -11.6376   19.5759 C   0  0  0  0  0  0  0  0  0  0  0  0
   10.8709   -4.2136   22.2442 O   0  0  0  0  0  0  0  0  0  0  0  0
   10.3934   -5.5016   19.9448 C   0  0  0  0  0  0  0  0  0  0  0  0
    5.7077   -8.7263   17.3926 C   0  0  0  0  0  0  0  0  0  0  0  0
    8.3547   -5.7623   16.8715 C   0  0  0  0  0  0  0  0  0  0  0  0
   10.8214   -4.4030   24.6619 C   0  0  0  0  0  0  0  0  0  0  0  0
    7.8543   -7.0220   17.2019 N   0  0  0  0  0  0  0  0  0  0  0  0
    9.9491   -4.0266   17.7619 C   0  0  0  0  0  0  0  0  0  0  0  0
    6.3916   -7.3456   17.4328 C   0  0  0  0  0  0  0  0  0  0  0  0
    4.2062  -10.1273   18.3890 N   0  0  0  0  0  0  0  0  0  0  0  0
    2.1582   -9.2549   16.7774 C   0  0  0  0  0  0  0  0  0  0  0  0
   10.5712   -4.8112   27.1057 C   0  0  0  0  0  0  0  0  0  0  0  0
    8.6459   -8.2103   16.7649 C   0  0  0  0  0  0  0  0  0  0  0  0
   10.6062   -3.4617   18.7916 C   0  0  0  0  0  0  0  0  0  0  0  0
    7.3823   -9.1251   15.4658 C   0  0  0  0  0  0  0  0  0  0  0  0
   10.6002   -3.6196   23.5633 C   0  0  0  0  0  0  0  0  0  0  0  0
   10.0622   -2.3490   23.6837 C   0  0  0  0  0  0  0  0  0  0  0  0
    1.3762  -12.2701   19.6106 C   0  0  0  0  0  0  0  0  0  0  0  0
    9.6331   -1.9243   24.9389 C   0  0  0  0  0  0  0  0  0  0  0  0
   11.1470   -3.5197   21.1572 C   0  0  0  0  0  0  0  0  0  0  0  0
    0.6904  -11.0095   17.7943 C   0  0  0  0  0  0  0  0  0  0  0  0
    9.4176   -5.3174   17.8536 C   0  0  0  0  0  0  0  0  0  0  0  0
    4.4347   -9.2276   17.5010 C   0  0  0  0  0  0  0  0  0  0  0  0
    0.4553  -11.9351   18.7418 N   0  0  0  0  0  0  0  0  0  0  0  0
    3.4848   -8.7429   16.6866 C   0  0  0  0  0  0  0  0  0  0  0  0
    6.5041   -9.6805   16.4476 C   0  0  0  0  0  0  0  0  0  0  0  0
    1.9417  -10.3316   17.6977 C   0  0  0  0  0  0  0  0  0  0  0  0
   10.7218   -4.1983   19.8975 C   0  0  0  0  0  0  0  0  0  0  0  0
  1  2  4  0
  1 25  4  0
  2 12  4  0
  2 18  1  0
  3  9  4  0
  3 28  4  0
  4  7  4  0
  4 16  4  0
  4 33  4  0
  5 11  2  0
  6 19  1  0
  6 21  1  0
  7 24  4  0
  8 22  1  0
  8 26  1  0
  9 34  4  0
 10 15  1  0
 10 29  1  0
 10 32  1  0
 11 13  1  0
 11 28  1  0
 12 22  4  0
 13 15  1  0
 13 19  1  0
 14 20  4  0
 14 28  4  0
 16 29  4  0
 17 31  4  0
 17 33  4  0
 20 34  4  0
 21 32  1  0
 22 23  4  0
 23 25  4  0
 24 30  4  0
 26 34  1  0
 27 30  4  0
 27 33  4  0
 29 31  4  0
M  END
$$$$

 Created by Python create_sdf_string function

 34 84  0  0  0  0  0  0  0  0999 V2000
    9.8304   -3.0121   25.4192 C   0  0  0  0  0  0  0  0  0  0  0  0
   10.4983   -3.8037   25.8565 C   0  0  0  0  0  0  0  0  0  0  0  0
    9.6564   -6.0939   18.7510 C   0  0  0  0  0  0  0  0  0  0  0  0
    3.1159  -10.7272   18.7752 Br  0  0  0  0  0  0  0  0  0  0  0  0
    8.1714   -4.9432   15.7382 I   0  0  0  0  0  0  0  0  0  0  0  0
    8.1429   -8.5132   14.4464 C   0  0  0  0  0  0  0  0  0  0  0  0
    2.7022  -11.4441   19.1070 C   0  0  0  0  0  0  0  0  0  0  0  0
   10.3058   -5.7455   19.9578 C   0  0  0  0  0  0  0  0  0  0  0  0
    5.9688   -8.8062   17.7115 P   0  0  0  0  0  0  0  0  0  0  0  0
    8.5751   -5.6073   16.8894 C   0  0  0  0  0  0  0  0  0  0  0  0
   11.1822   -5.2092   24.7490 C   0  0  0  0  0  0  0  0  0  0  0  0
    7.6382   -7.0650   16.5647 N   0  0  0  0  0  0  0  0  0  0  0  0
    9.6739   -4.0681   17.8609 C   0  0  0  0  0  0  0  0  0  0  0  0
    5.8394   -7.2010   17.6040 C   0  0  0  0  0  0  0  0  0  0  0  0
    4.8432  -10.4413   18.8260 N   0  0  0  0  0  0  0  0  0  0  0  0
    1.9741   -9.1658   16.5328 C   0  0  0  0  0  0  0  0  0  0  0  0
   10.3345   -4.3269   26.8830 C   0  0  0  0  0  0  0  0  0  0  0  0
   10.3401   -3.4025   18.7765 C   0  0  0  0  0  0  0  0  0  0  0  0
    7.3800   -9.0016   15.3497 C   0  0  0  0  0  0  0  0  0  0  0  0
   10.3814   -3.3555   23.6481 C   0  0  0  0  0  0  0  0  0  0  0  0
   10.0058   -2.2110   23.8778 C   0  0  0  0  0  0  0  0  0  0  0  0
    1.3094  -12.5164   19.7554 C   0  0  0  0  0  0  0  0  0  0  0  0
    9.5273   -2.1360   25.4149 C   0  0  0  0  0  0  0  0  0  0  0  0
   11.1078   -3.5882   21.3017 Cl  0  0  0  0  0  0  0  0  0  0  0  0
    0.8458  -10.8427   17.7129 C   0  0  0  0  0  0  0  0  0  0  0  0
    9.4749   -5.8430   18.4573 C   0  0  0  0  0  0  0  0  0  0  0  0
    4.5575   -9.1413   17.7841 C   0  0  0  0  0  0  0  0  0  0  0  0
    0.3057  -11.8123   19.0877 N   0  0  0  0  0  0  0  0  0  0  0  0
    3.7514   -8.6159   16.9847 C   0  0  0  0  0  0  0  0  0  0  0  0
    6.3352   -9.4674   16.8405 C   0  0  0  0  0  0  0  0  0  0  0  0
    1.6538  -10.0236   17.1642 C   0  0  0  0  0  0  0  0  0  0  0  0
   10.7170   -4.2141   19.9249 C   0  0  0  0  0  0  0  0  0  0  0  0
   10.8938   -3.9861   22.3427 He  0  0  0  0  0  0  0  0  0  0  0  0
    8.6351   -8.3677   16.8412 He  0  0  0  0  0  0  0  0  0  0  0  0
  1  2  4  0
  1 11  1  0
  1 15  3  0
  1 19  4  0
  1 23  4  0
  1 26  2  0
  2  4  4  0
  2  6  1  0
  2 11  4  0
  3  7  3  0
  3  9  2  0
  3 10  2  0
  3 12  3  0
  3 22  2  0
  3 26  4  0
  3 28  1  0
  4  7  4  0
  4  8  2  0
  4  9  3  0
  4 13  1  0
  4 15  4  0
  4 19  1  0
  4 22  3  0
  4 24  2  0
  4 28  2  0
  4 31  4  0
  5 14  3  0
  5 21  4  0
  5 26  4  0
  5 29  4  0
  6 15  1  0
  6 16  1  0
  6 19  1  0
  6 21  3  0
  7 14  2  0
  8 31  4  0
  8 32  4  0
  9 14  1  0
  9 25  1  0
  9 27  1  0
  9 30  1  0
  9 31  2  0
 10 12  1  0
 10 15  2  0
 10 26  1  0
 10 30  3  0
 11 13  1  0
 11 20  4  0
 11 24  2  0
 11 30  3  0
 11 31  4  0
 12 14  2  0
 12 18  1  0
 12 32  2  0
 13 14  3  0
 13 18  4  0
 13 22  2  0
 13 26  4  0
 13 30  3  0
 14 21  2  0
 14 31  2  0
 15 20  4  0
 15 31  3  0
 16 17  4  0
 16 29  4  0
 16 31  4  0
 17 23  4  0
 17 32  3  0
 18 24  2  0
 18 32  4  0
 19 20  4  0
 19 21  3  0
 19 30  1  0
 20 21  3  0
 20 29  1  0
 21 23  4  0
 22 28  4  0
 22 29  1  0
 22 31  1  0
 22 32  1  0
 23 30  1  0
 24 31  2  0
 25 28  4  0
 27 29  4  0
M  END
$$$$

 Created by Python create_sdf_string function

 34 38  0  0  0  0  0  0  0  0999 V2000
    9.6938   -2.8318   26.0223 C   0  0  0  0  0  0  0  0  0  0  0  0
   10.3875   -3.9796   25.8959 C   0  0  0  0  0  0  0  0  0  0  0  0
    9.8099   -6.1702   18.9295 C   0  0  0  0  0  0  0  0  0  0  0  0
    3.0320  -10.7560   18.5335 C   0  0  0  0  0  0  0  0  0  0  0  0
    8.0939   -5.0895   15.8135 O   0  0  0  0  0  0  0  0  0  0  0  0
    8.2721   -8.3650   15.0890 C   0  0  0  0  0  0  0  0  0  0  0  0
    2.7108  -11.7434   19.4426 C   0  0  0  0  0  0  0  0  0  0  0  0
   11.0102   -4.2271   22.2844 C   0  0  0  0  0  0  0  0  0  0  0  0
   10.4078   -5.5821   19.9970 C   0  0  0  0  0  0  0  0  0  0  0  0
    5.8515   -8.6941   17.5877 C   0  0  0  0  0  0  0  0  0  0  0  0
    8.3852   -5.8092   16.8012 C   0  0  0  0  0  0  0  0  0  0  0  0
   10.9016   -4.3988   24.6818 C   0  0  0  0  0  0  0  0  0  0  0  0
    7.7869   -7.0030   16.9833 N   0  0  0  0  0  0  0  0  0  0  0  0
    9.8609   -4.0897   17.8649 C   0  0  0  0  0  0  0  0  0  0  0  0
    6.4260   -7.2976   17.3870 C   0  0  0  0  0  0  0  0  0  0  0  0
    4.2959  -10.1994   18.4092 N   0  0  0  0  0  0  0  0  0  0  0  0
    2.3336   -9.2103   16.8196 C   0  0  0  0  0  0  0  0  0  0  0  0
   10.6195   -4.8014   27.1478 C   0  0  0  0  0  0  0  0  0  0  0  0
    8.5872   -8.1981   16.4290 C   0  0  0  0  0  0  0  0  0  0  0  0
   10.5017   -3.4854   18.9197 C   0  0  0  0  0  0  0  0  0  0  0  0
    7.0875   -9.0353   15.3799 C   0  0  0  0  0  0  0  0  0  0  0  0
   10.6713   -3.6088   23.6018 C   0  0  0  0  0  0  0  0  0  0  0  0
   10.0407   -2.3949   23.6784 C   0  0  0  0  0  0  0  0  0  0  0  0
    1.3522  -12.2196   19.5559 C   0  0  0  0  0  0  0  0  0  0  0  0
    9.5203   -1.9846   24.9157 C   0  0  0  0  0  0  0  0  0  0  0  0
   11.0881   -3.5518   21.2558 C   0  0  0  0  0  0  0  0  0  0  0  0
    0.7148  -10.8162   17.8495 C   0  0  0  0  0  0  0  0  0  0  0  0
    9.3982   -5.3580   17.8757 C   0  0  0  0  0  0  0  0  0  0  0  0
    4.5607   -9.2062   17.6290 C   0  0  0  0  0  0  0  0  0  0  0  0
    0.4114  -11.7518   18.7435 N   0  0  0  0  0  0  0  0  0  0  0  0
    3.6095   -8.6854   16.8155 C   0  0  0  0  0  0  0  0  0  0  0  0
    6.6038   -9.6761   16.5888 C   0  0  0  0  0  0  0  0  0  0  0  0
    2.0206  -10.2505   17.7132 C   0  0  0  0  0  0  0  0  0  0  0  0
   10.6653   -4.2417   20.0166 C   0  0  0  0  0  0  0  0  0  0  0  0
  1  2  4  0
  1 25  4  0
  2 12  4  0
  2 18  1  0
  3  9  4  0
  3 28  4  0
  4  7  4  0
  4 16  4  0
  4 33  4  0
  5 11  2  0
  6 19  1  0
  6 21  1  0
  7 24  4  0
  8 22  1  0
  8 26  1  0
  9 34  4  0
 10 15  1  0
 10 29  1  0
 10 32  1  0
 11 13  1  0
 11 28  1  0
 12 22  4  0
 13 15  1  0
 13 19  1  0
 14 20  4  0
 14 28  4  0
 16 29  4  0
 17 31  4  0
 17 33  4  0
 20 34  4  0
 21 32  1  0
 22 23  4  0
 23 25  4  0
 24 30  4  0
 26 34  1  0
 27 30  4  0
 27 33  4  0
 29 31  4  0
M  END
$$$$

 Created by Python create_sdf_string function

 34 74  0  0  0  0  0  0  0  0999 V2000
    9.4759   -2.4481   26.3440 C   0  0  0  0  0  0  0  0  0  0  0  0
   10.6818   -3.9024   25.8794 C   0  0  0  0  0  0  0  0  0  0  0  0
    3.5228  -11.2615   18.4163 O   0  0  0  0  0  0  0  0  0  0  0  0
    8.2158   -7.8099   14.6677 C   0  0  0  0  0  0  0  0  0  0  0  0
    2.9384  -11.7739   19.2416 C   0  0  0  0  0  0  0  0  0  0  0  0
   10.4319   -5.3840   20.1399 C   0  0  0  0  0  0  0  0  0  0  0  0
    8.5670   -5.9108   16.8287 C   0  0  0  0  0  0  0  0  0  0  0  0
   10.5420   -4.1150   24.8922 C   0  0  0  0  0  0  0  0  0  0  0  0
    7.8078   -6.8066   16.8456 N   0  0  0  0  0  0  0  0  0  0  0  0
   10.0740   -4.4830   17.9289 S   0  0  0  0  0  0  0  0  0  0  0  0
    6.0345   -7.3883   17.1951 C   0  0  0  0  0  0  0  0  0  0  0  0
    4.6406  -10.3415   18.5326 N   0  0  0  0  0  0  0  0  0  0  0  0
    2.0868   -9.1117   17.3995 C   0  0  0  0  0  0  0  0  0  0  0  0
   10.3288   -4.2342   27.4329 C   0  0  0  0  0  0  0  0  0  0  0  0
    8.3531   -7.8757   17.4817 C   0  0  0  0  0  0  0  0  0  0  0  0
   10.6437   -3.5958   18.8300 C   0  0  0  0  0  0  0  0  0  0  0  0
    7.1318   -9.1777   15.5240 C   0  0  0  0  0  0  0  0  0  0  0  0
   10.3899   -3.0943   24.0673 C   0  0  0  0  0  0  0  0  0  0  0  0
   10.0107   -2.3717   23.4259 C   0  0  0  0  0  0  0  0  0  0  0  0
    1.4892  -12.3802   19.6487 C   0  0  0  0  0  0  0  0  0  0  0  0
    9.4078   -1.8510   25.4517 C   0  0  0  0  0  0  0  0  0  0  0  0
   11.1559   -3.4471   21.0774 C   0  0  0  0  0  0  0  0  0  0  0  0
    0.5919  -10.6713   17.6760 C   0  0  0  0  0  0  0  0  0  0  0  0
    9.2379   -5.5098   17.9439 I   0  0  0  0  0  0  0  0  0  0  0  0
    0.6881  -12.1824   18.9800 N   0  0  0  0  0  0  0  0  0  0  0  0
    3.6921   -8.8241   16.7569 C   0  0  0  0  0  0  0  0  0  0  0  0
    6.3073   -9.7882   16.9054 C   0  0  0  0  0  0  0  0  0  0  0  0
    1.8042  -10.4175   17.5926 C   0  0  0  0  0  0  0  0  0  0  0  0
   10.5709   -4.3925   19.8912 C   0  0  0  0  0  0  0  0  0  0  0  0
   10.3393   -6.1063   18.7520 He  0  0  0  0  0  0  0  0  0  0  0  0
    7.5474   -5.0827   15.9058 He  0  0  0  0  0  0  0  0  0  0  0  0
   11.1686   -4.3622   22.0245 He  0  0  0  0  0  0  0  0  0  0  0  0
    5.6484   -8.7791   17.4666 He  0  0  0  0  0  0  0  0  0  0  0  0
    4.5280   -9.2809   17.9054 He  0  0  0  0  0  0  0  0  0  0  0  0
  1  7  1  0
  1 15  1  0
  1 21  4  0
  2  5  1  0
  2  8  4  0
  2 14  1  0
  2 19  1  0
  2 22  4  0
  2 23  3  0
  2 24  3  0
  2 25  1  0
  2 29  3  0
  3  5  2  0
  3  7  2  0
  3  9  4  0
  3 14  1  0
  3 18  1  0
  3 21  4  0
  3 24  4  0
  3 28  4  0
  4 15  1  0
  4 23  4  0
  4 24  3  0
  5 16  2  0
  5 20  4  0
  5 25  4  0
  6 11  1  0
  6 13  4  0
  6 16  2  0
  6 28  3  0
  6 29  4  0
  7  9  1  0
  7 18  4  0
  7 21  1  0
  7 24  1  0
  8 18  4  0
  8 20  1  0
  8 26  3  0
  9 11  3  0
  9 15  1  0
  9 23  2  0
 10 16  4  0
 10 21  3  0
 10 22  2  0
 10 23  4  0
 10 24  3  0
 11 16  3  0
 11 25  3  0
 11 26  3  0
 12 16  4  0
 12 24  4  0
 12 28  1  0
 13 24  1  0
 13 26  4  0
 13 28  4  0
 14 27  1  0
 16 27  1  0
 16 29  4  0
 17 27  1  0
 18 19  4  0
 18 21  3  0
 18 24  4  0
 19 21  4  0
 19 24  3  0
 20 24  1  0
 20 25  4  0
 22 24  4  0
 22 28  3  0
 22 29  1  0
 23 24  3  0
 23 25  4  0
 23 28  4  0
 24 25  3  0
 25 29  3  0
M  END
$$$$

 Created by Python create_sdf_string function

 34 38  0  0  0  0  0  0  0  0999 V2000
    9.5871   -2.4709   26.1120 C   0  0  0  0  0  0  0  0  0  0  0  0
   10.2790   -3.6773   26.0987 C   0  0  0  0  0  0  0  0  0  0  0  0
    9.8923   -6.1396   18.8969 C   0  0  0  0  0  0  0  0  0  0  0  0
    3.0889  -10.8713   18.5301 C   0  0  0  0  0  0  0  0  0  0  0  0
    7.9881   -5.0674   15.9271 O   0  0  0  0  0  0  0  0  0  0  0  0
    8.1806   -8.1460   15.3166 C   0  0  0  0  0  0  0  0  0  0  0  0
    2.8107  -11.9435   19.3949 C   0  0  0  0  0  0  0  0  0  0  0  0
   10.9716   -4.1518   22.3618 O   0  0  0  0  0  0  0  0  0  0  0  0
   10.4902   -5.5350   19.9658 C   0  0  0  0  0  0  0  0  0  0  0  0
    5.8013   -8.7630   17.5104 C   0  0  0  0  0  0  0  0  0  0  0  0
    8.3933   -5.8341   16.8409 C   0  0  0  0  0  0  0  0  0  0  0  0
   10.7971   -4.1912   24.8992 C   0  0  0  0  0  0  0  0  0  0  0  0
    7.7698   -7.0576   17.0672 N   0  0  0  0  0  0  0  0  0  0  0  0
    9.9583   -4.1058   17.7658 C   0  0  0  0  0  0  0  0  0  0  0  0
    6.2905   -7.3505   17.1459 C   0  0  0  0  0  0  0  0  0  0  0  0
    4.3597  -10.3233   18.3278 N   0  0  0  0  0  0  0  0  0  0  0  0
    2.2740   -9.2723   16.9415 C   0  0  0  0  0  0  0  0  0  0  0  0
   10.4879   -4.3884   27.3515 C   0  0  0  0  0  0  0  0  0  0  0  0
    8.6044   -8.1832   16.8632 C   0  0  0  0  0  0  0  0  0  0  0  0
   10.5751   -3.4910   18.8469 C   0  0  0  0  0  0  0  0  0  0  0  0
    7.1814   -9.0593   15.3829 C   0  0  0  0  0  0  0  0  0  0  0  0
   10.5910   -3.4783   23.7369 C   0  0  0  0  0  0  0  0  0  0  0  0
    9.9400   -2.2695   23.7094 C   0  0  0  0  0  0  0  0  0  0  0  0
    1.5591  -12.4761   19.5172 C   0  0  0  0  0  0  0  0  0  0  0  0
    9.4382   -1.7532   24.9167 C   0  0  0  0  0  0  0  0  0  0  0  0
   11.0216   -3.4574   21.2085 C   0  0  0  0  0  0  0  0  0  0  0  0
    0.7827  -10.9498   17.9379 C   0  0  0  0  0  0  0  0  0  0  0  0
    9.4645   -5.3967   17.8304 C   0  0  0  0  0  0  0  0  0  0  0  0
    4.5529   -9.2748   17.6047 C   0  0  0  0  0  0  0  0  0  0  0  0
    0.5598  -11.9590   18.8294 N   0  0  0  0  0  0  0  0  0  0  0  0
    3.5171   -8.6935   16.9363 C   0  0  0  0  0  0  0  0  0  0  0  0
    6.5567   -9.7477   16.5785 C   0  0  0  0  0  0  0  0  0  0  0  0
    2.0348  -10.3407   17.7975 C   0  0  0  0  0  0  0  0  0  0  0  0
   10.7190   -4.1986   19.9644 C   0  0  0  0  0  0  0  0  0  0  0  0
  1  2  4  0
  1 25  4  0
  2 12  4  0
  2 18  1  0
  3  9  4  0
  3 28  4  0
  4  7  4  0
  4 16  4  0
  4 33  4  0
  5 11  2  0
  6 19  1  0
  6 21  1  0
  7 24  4  0
  8 22  1  0
  8 26  1  0
  9 34  4  0
 10 15  1  0
 10 29  1  0
 10 32  1  0
 11 13  1  0
 11 28  1  0
 12 22  4  0
 13 15  1  0
 13 19  1  0
 14 20  4  0
 14 28  4  0
 16 29  4  0
 17 31  4  0
 17 33  4  0
 20 34  4  0
 21 32  1  0
 22 23  4  0
 23 25  4  0
 24 30  4  0
 26 34  1  0
 27 30  4  0
 27 33  4  0
 29 31  4  0
M  END
$$$$

 Created by Python create_sdf_string function

 34 71  0  0  0  0  0  0  0  0999 V2000
    9.2565   -2.8224   26.1829 C   0  0  0  0  0  0  0  0  0  0  0  0
   10.2444   -3.8349   26.1103 C   0  0  0  0  0  0  0  0  0  0  0  0
   10.1306   -5.5487   18.9734 C   0  0  0  0  0  0  0  0  0  0  0  0
    3.4686  -10.8435   18.2667 C   0  0  0  0  0  0  0  0  0  0  0  0
    7.4634   -5.1200   15.8812 O   0  0  0  0  0  0  0  0  0  0  0  0
    2.7267  -11.6167   19.2748 C   0  0  0  0  0  0  0  0  0  0  0  0
   10.7710   -4.0152   22.4569 O   0  0  0  0  0  0  0  0  0  0  0  0
   10.5464   -5.4643   20.1007 C   0  0  0  0  0  0  0  0  0  0  0  0
    8.4353   -5.9758   16.8694 C   0  0  0  0  0  0  0  0  0  0  0  0
   10.3753   -4.6527   24.8755 C   0  0  0  0  0  0  0  0  0  0  0  0
    8.0165   -6.4717   17.1000 N   0  0  0  0  0  0  0  0  0  0  0  0
    9.9907   -3.9503   18.0451 C   0  0  0  0  0  0  0  0  0  0  0  0
    4.4513   -9.6943   18.1310 N   0  0  0  0  0  0  0  0  0  0  0  0
    2.3597   -9.2743   17.0184 C   0  0  0  0  0  0  0  0  0  0  0  0
   10.0163   -4.2006   27.0667 C   0  0  0  0  0  0  0  0  0  0  0  0
    8.3845   -7.9339   16.8614 C   0  0  0  0  0  0  0  0  0  0  0  0
   10.4966   -3.3470   18.8955 N   0  0  0  0  0  0  0  0  0  0  0  0
    7.0441   -9.2280   15.3474 C   0  0  0  0  0  0  0  0  0  0  0  0
   10.7855   -3.7719   23.7278 C   0  0  0  0  0  0  0  0  0  0  0  0
    1.7510  -12.1609   19.4230 C   0  0  0  0  0  0  0  0  0  0  0  0
    9.2138   -1.5155   24.8154 C   0  0  0  0  0  0  0  0  0  0  0  0
   11.0043   -3.2452   21.2670 C   0  0  0  0  0  0  0  0  0  0  0  0
    1.0051  -10.7990   17.9054 C   0  0  0  0  0  0  0  0  0  0  0  0
    9.1059   -5.0260   17.6217 C   0  0  0  0  0  0  0  0  0  0  0  0
    4.3532   -9.1730   17.4762 C   0  0  0  0  0  0  0  0  0  0  0  0
    0.4531  -12.1602   18.9872 N   0  0  0  0  0  0  0  0  0  0  0  0
    7.0080   -9.7040   16.1142 C   0  0  0  0  0  0  0  0  0  0  0  0
    1.9668  -10.3426   18.0346 C   0  0  0  0  0  0  0  0  0  0  0  0
   10.6681   -4.4669   20.1801 C   0  0  0  0  0  0  0  0  0  0  0  0
    8.3683   -7.9305   15.8633 He  0  0  0  0  0  0  0  0  0  0  0  0
    5.4758   -8.8636   17.2915 He  0  0  0  0  0  0  0  0  0  0  0  0
    6.3023   -7.7865   16.6705 He  0  0  0  0  0  0  0  0  0  0  0  0
   10.0500   -2.3520   23.7591 He  0  0  0  0  0  0  0  0  0  0  0  0
    3.1763   -8.3587   16.7398 He  0  0  0  0  0  0  0  0  0  0  0  0
  1  2  2  0
  1  5  2  0
  1  9  1  0
  1 21  4  0
  2 10  4  0
  2 15  2  0
  2 16  4  0
  2 19  2  0
  3  8  4  0
  3 17  3  0
  3 26  1  0
  4 14  4  0
  4 26  1  0
  5  7  3  0
  5  8  3  0
  5  9  2  0
  5 13  1  0
  5 14  1  0
  5 16  2  0
  5 21  2  0
  5 23  4  0
  6 11  3  0
  6 17  4  0
  6 20  4  0
  6 24  2  0
  6 26  2  0
  6 28  4  0
  7 14  4  0
  7 19  1  0
  7 22  1  0
  7 28  4  0
  8 15  3  0
  8 18  2  0
  8 24  4  0
  8 29  4  0
  9 11  1  0
  9 24  3  0
 10 17  4  0
 10 18  1  0
 10 19  4  0
 10 21  1  0
 11 13  3  0
 11 16  1  0
 11 22  4  0
 12 17  4  0
 12 18  3  0
 12 21  2  0
 12 24  4  0
 13 23  1  0
 14 23  4  0
 14 28  4  0
 15 29  4  0
 16 17  2  0
 16 29  3  0
 17 24  2  0
 17 26  3  0
 17 29  4  0
 18 27  1  0
 19 23  3  0
 19 27  4  0
 19 28  3  0
 20 26  4  0
 21 27  1  0
 22 24  1  0
 22 29  4  0
 23 26  4  0
 23 28  4  0
 24 25  3  0
 25 27  4  0
 25 28  1  0
 25 29  2  0
M  END
$$$$

 Created by Python create_sdf_string function

 34 38  0  0  0  0  0  0  0  0999 V2000
    9.3764   -2.5753   26.0157 C   0  0  0  0  0  0  0  0  0  0  0  0
   10.0202   -3.8043   26.0188 C   0  0  0  0  0  0  0  0  0  0  0  0
    9.8185   -5.9893   18.9077 C   0  0  0  0  0  0  0  0  0  0  0  0
    3.1022  -10.6500   18.3432 C   0  0  0  0  0  0  0  0  0  0  0  0
    7.9728   -4.9656   15.9446 O   0  0  0  0  0  0  0  0  0  0  0  0
    8.4243   -8.2127   15.4466 C   0  0  0  0  0  0  0  0  0  0  0  0
    2.9199  -11.7227   19.3044 C   0  0  0  0  0  0  0  0  0  0  0  0
   10.9138   -4.1698   22.4296 O   0  0  0  0  0  0  0  0  0  0  0  0
   10.4506   -5.4257   19.9998 C   0  0  0  0  0  0  0  0  0  0  0  0
    5.7446   -8.5961   17.0183 C   0  0  0  0  0  0  0  0  0  0  0  0
    8.3338   -5.6501   16.8653 C   0  0  0  0  0  0  0  0  0  0  0  0
   10.6084   -4.3004   24.8383 C   0  0  0  0  0  0  0  0  0  0  0  0
    7.8045   -6.9035   17.0559 N   0  0  0  0  0  0  0  0  0  0  0  0
    9.8451   -3.9267   17.8580 C   0  0  0  0  0  0  0  0  0  0  0  0
    6.3183   -7.2769   17.0012 C   0  0  0  0  0  0  0  0  0  0  0  0
    4.3697  -10.1043   18.1124 N   0  0  0  0  0  0  0  0  0  0  0  0
    2.1853   -9.1424   16.8800 C   0  0  0  0  0  0  0  0  0  0  0  0
   10.1021   -4.5395   27.2805 C   0  0  0  0  0  0  0  0  0  0  0  0
    8.6051   -8.0519   16.9394 C   0  0  0  0  0  0  0  0  0  0  0  0
   10.4978   -3.3393   18.9226 N   0  0  0  0  0  0  0  0  0  0  0  0
    7.3160   -9.0975   15.1483 C   0  0  0  0  0  0  0  0  0  0  0  0
   10.5066   -3.5585   23.6917 C   0  0  0  0  0  0  0  0  0  0  0  0
    9.9437   -2.3047   23.6766 C   0  0  0  0  0  0  0  0  0  0  0  0
    1.7388  -12.2983   19.5308 C   0  0  0  0  0  0  0  0  0  0  0  0
    9.3711   -1.7904   24.8534 C   0  0  0  0  0  0  0  0  0  0  0  0
   11.0422   -3.4598   21.3137 C   0  0  0  0  0  0  0  0  0  0  0  0
    0.7957  -10.8780   17.9308 C   0  0  0  0  0  0  0  0  0  0  0  0
    9.3838   -5.1950   17.8794 C   0  0  0  0  0  0  0  0  0  0  0  0
    4.5355   -9.1030   17.3151 C   0  0  0  0  0  0  0  0  0  0  0  0
    0.6471  -11.9057   18.8762 N   0  0  0  0  0  0  0  0  0  0  0  0
    3.4791   -8.5775   16.7356 C   0  0  0  0  0  0  0  0  0  0  0  0
    6.5960   -9.6457   16.2906 C   0  0  0  0  0  0  0  0  0  0  0  0
    2.0165  -10.2362   17.7471 C   0  0  0  0  0  0  0  0  0  0  0  0
   10.6643   -4.0816   20.0393 C   0  0  0  0  0  0  0  0  0  0  0  0
  1  2  4  0
  1 25  4  0
  2 12  4  0
  2 18  1  0
  3  9  4  0
  3 28  4  0
  4  7  4  0
  4 16  4  0
  4 33  4  0
  5 11  2  0
  6 19  1  0
  6 21  1  0
  7 24  4  0
  8 22  1  0
  8 26  1  0
  9 34  4  0
 10 15  1  0
 10 29  1  0
 10 32  1  0
 11 13  1  0
 11 28  1  0
 12 22  4  0
 13 15  1  0
 13 19  1  0
 14 20  4  0
 14 28  4  0
 16 29  4  0
 17 31  4  0
 17 33  4  0
 20 34  4  0
 21 32  1  0
 22 23  4  0
 23 25  4  0
 24 30  4  0
 26 34  1  0
 27 30  4  0
 27 33  4  0
 29 31  4  0
M  END
$$$$

 Created by Python create_sdf_string function

 34 73  0  0  0  0  0  0  0  0999 V2000
    9.8581   -2.5027   25.9254 C   0  0  0  0  0  0  0  0  0  0  0  0
   10.1025   -3.9812   25.9349 C   0  0  0  0  0  0  0  0  0  0  0  0
    3.4476  -10.2890   18.3697 O   0  0  0  0  0  0  0  0  0  0  0  0
    9.0408   -8.5253   14.7693 C   0  0  0  0  0  0  0  0  0  0  0  0
    2.9478  -11.8225   19.3076 C   0  0  0  0  0  0  0  0  0  0  0  0
   11.1527   -3.9863   22.6190 O   0  0  0  0  0  0  0  0  0  0  0  0
   10.2983   -5.5082   19.9821 C   0  0  0  0  0  0  0  0  0  0  0  0
    5.3242   -8.5381   16.8891 C   0  0  0  0  0  0  0  0  0  0  0  0
    8.4806   -5.5829   16.7229 C   0  0  0  0  0  0  0  0  0  0  0  0
   10.9866   -4.7062   25.2983 C   0  0  0  0  0  0  0  0  0  0  0  0
    7.8720   -6.9565   17.0052 N   0  0  0  0  0  0  0  0  0  0  0  0
    9.7003   -3.7955   17.6956 C   0  0  0  0  0  0  0  0  0  0  0  0
    6.6436   -7.4828   16.7119 C   0  0  0  0  0  0  0  0  0  0  0  0
    3.6519  -10.3197   18.6269 N   0  0  0  0  0  0  0  0  0  0  0  0
    1.8788   -9.5866   17.2204 C   0  0  0  0  0  0  0  0  0  0  0  0
    9.7244   -4.5786   26.8031 Cl  0  0  0  0  0  0  0  0  0  0  0  0
    8.4767   -8.6596   16.6699 C   0  0  0  0  0  0  0  0  0  0  0  0
    7.3733   -9.1775   14.8741 C   0  0  0  0  0  0  0  0  0  0  0  0
    9.7803   -2.2186   23.6977 C   0  0  0  0  0  0  0  0  0  0  0  0
    1.7781  -12.2378   19.2067 C   0  0  0  0  0  0  0  0  0  0  0  0
    9.2610   -1.9874   25.2604 C   0  0  0  0  0  0  0  0  0  0  0  0
   11.1229   -3.5357   21.1499 C   0  0  0  0  0  0  0  0  0  0  0  0
    0.5585  -10.7857   18.1531 C   0  0  0  0  0  0  0  0  0  0  0  0
    9.4231   -5.4436   17.7447 C   0  0  0  0  0  0  0  0  0  0  0  0
    4.3489   -9.0481   17.3784 C   0  0  0  0  0  0  0  0  0  0  0  0
    0.7273  -11.9049   19.3128 N   0  0  0  0  0  0  0  0  0  0  0  0
    3.3520   -8.9939   17.0139 C   0  0  0  0  0  0  0  0  0  0  0  0
    7.1426   -8.9656   16.4333 C   0  0  0  0  0  0  0  0  0  0  0  0
    1.8767  -10.3525   17.6828 P   0  0  0  0  0  0  0  0  0  0  0  0
   10.7376   -3.9016   19.9306 C   0  0  0  0  0  0  0  0  0  0  0  0
    9.7086   -5.7602   19.2096 He  0  0  0  0  0  0  0  0  0  0  0  0
    8.1404   -5.5527   16.2564 He  0  0  0  0  0  0  0  0  0  0  0  0
   10.5430   -3.5213   18.9245 He  0  0  0  0  0  0  0  0  0  0  0  0
   10.6751   -4.0360   23.4802 He  0  0  0  0  0  0  0  0  0  0  0  0
  1  2  4  0
  1  6  4  0
  1 12  3  0
  1 21  3  0
  1 27  1  0
  2  9  3  0
  2 10  4  0
  2 16  1  0
  2 23  3  0
  3  5  4  0
  3  7  4  0
  3 14  4  0
  3 16  2  0
  3 21  1  0
  3 29  4  0
  4 10  3  0
  4 15  4  0
  4 17  1  0
  4 18  1  0
  4 23  2  0
  4 27  4  0
  4 30  3  0
  5 15  3  0
  5 18  4  0
  5 20  4  0
  5 24  3  0
  5 25  3  0
  6  7  4  0
  6  8  4  0
  6 11  3  0
  6 15  3  0
  6 22  1  0
  7 26  2  0
  7 30  4  0
  8 11  1  0
  8 13  3  0
  8 25  1  0
  8 29  1  0
  9 11  1  0
  9 16  2  0
  9 17  4  0
  9 24  1  0
 10 23  3  0
 10 26  2  0
 10 27  1  0
 10 28  1  0
 11 13  1  0
 11 17  1  0
 12 19  1  0
 12 27  4  0
 13 23  1  0
 13 24  2  0
 13 26  4  0
 15 27  4  0
 15 29  4  0
 16 21  2  0
 16 26  1  0
 16 29  2  0
 16 30  4  0
 17 23  2  0
 17 28  4  0
 18 28  1  0
 19 21  4  0
 19 28  1  0
 20 21  2  0
 20 25  3  0
 20 26  4  0
 21 26  1  0
 22 30  1  0
 23 26  4  0
 23 29  4  0
 25 26  3  0
 25 27  4  0
M  END
$$$$

 Created by Python create_sdf_string function

 34 38  0  0  0  0  0  0  0  0999 V2000
    9.5277   -2.6898   26.0380 C   0  0  0  0  0  0  0  0  0  0  0  0
   10.1279   -3.9271   25.9859 C   0  0  0  0  0  0  0  0  0  0  0  0
    9.7003   -6.0500   18.9580 C   0  0  0  0  0  0  0  0  0  0  0  0
    3.0658  -10.7085   18.4468 C   0  0  0  0  0  0  0  0  0  0  0  0
    8.1121   -5.1107   15.8373 O   0  0  0  0  0  0  0  0  0  0  0  0
    8.5825   -8.4431   15.1392 C   0  0  0  0  0  0  0  0  0  0  0  0
    2.9318  -11.7998   19.3351 C   0  0  0  0  0  0  0  0  0  0  0  0
   11.0801   -4.2036   22.3870 O   0  0  0  0  0  0  0  0  0  0  0  0
   10.3370   -5.4456   20.0385 C   0  0  0  0  0  0  0  0  0  0  0  0
    5.6786   -8.6337   16.9850 C   0  0  0  0  0  0  0  0  0  0  0  0
    8.4288   -5.8059   16.8104 C   0  0  0  0  0  0  0  0  0  0  0  0
   10.7479   -4.3956   24.8085 C   0  0  0  0  0  0  0  0  0  0  0  0
    7.8576   -7.0788   16.9538 N   0  0  0  0  0  0  0  0  0  0  0  0
    9.9089   -4.0487   17.8076 C   0  0  0  0  0  0  0  0  0  0  0  0
    6.3568   -7.3204   16.9218 C   0  0  0  0  0  0  0  0  0  0  0  0
    4.2745  -10.0706   18.2021 N   0  0  0  0  0  0  0  0  0  0  0  0
    2.0092   -9.2589   16.8958 C   0  0  0  0  0  0  0  0  0  0  0  0
   10.1377   -4.7237   27.2481 Cl  0  0  0  0  0  0  0  0  0  0  0  0
    8.7517   -8.1620   16.6922 C   0  0  0  0  0  0  0  0  0  0  0  0
   10.5531   -3.4226   18.8409 C   0  0  0  0  0  0  0  0  0  0  0  0
    7.2980   -9.1752   15.0075 C   0  0  0  0  0  0  0  0  0  0  0  0
   10.6346   -3.6293   23.6637 C   0  0  0  0  0  0  0  0  0  0  0  0
   10.0285   -2.3780   23.6814 C   0  0  0  0  0  0  0  0  0  0  0  0
    1.7068  -12.3890   19.6331 C   0  0  0  0  0  0  0  0  0  0  0  0
    9.5025   -1.8772   24.8727 C   0  0  0  0  0  0  0  0  0  0  0  0
   11.1464   -3.4757   21.2429 C   0  0  0  0  0  0  0  0  0  0  0  0
    0.7027  -10.8988   18.1582 C   0  0  0  0  0  0  0  0  0  0  0  0
    9.3938   -5.3237   17.8743 C   0  0  0  0  0  0  0  0  0  0  0  0
    4.4144   -9.1469   17.3209 C   0  0  0  0  0  0  0  0  0  0  0  0
    0.6157  -11.9398   19.0493 N   0  0  0  0  0  0  0  0  0  0  0  0
    3.3438   -8.6951   16.6803 C   0  0  0  0  0  0  0  0  0  0  0  0
    6.5744   -9.4747   16.2756 C   0  0  0  0  0  0  0  0  0  0  0  0
    1.9220  -10.2943   17.8612 C   0  0  0  0  0  0  0  0  0  0  0  0
   10.6681   -4.1217   19.9965 C   0  0  0  0  0  0  0  0  0  0  0  0
  1  2  4  0
  1 25  4  0
  2 12  4  0
  2 18  1  0
  3  9  4  0
  3 28  4  0
  4  7  4  0
  4 16  4  0
  4 33  4  0
  5 11  2  0
  6 19  1  0
  6 21  1  0
  7 24  4  0
  8 22  1  0
  8 26  1  0
  9 34  4  0
 10 15  1  0
 10 29  1  0
 10 32  1  0
 11 13  1  0
 11 28  1  0
 12 22  4  0
 13 15  1  0
 13 19  1  0
 14 20  4  0
 14 28  4  0
 16 29  4  0
 17 31  4  0
 17 33  4  0
 20 34  4  0
 21 32  1  0
 22 23  4  0
 23 25  4  0
 24 30  4  0
 26 34  1  0
 27 30  4  0
 27 33  4  0
 29 31  4  0
M  END
$$$$

 Created by Python create_sdf_string function

 34 65  0  0  0  0  0  0  0  0999 V2000
    9.4322   -2.6644   25.8368 C   0  0  0  0  0  0  0  0  0  0  0  0
    9.9846   -3.7645   26.1027 C   0  0  0  0  0  0  0  0  0  0  0  0
    9.3678   -5.7836   18.6934 C   0  0  0  0  0  0  0  0  0  0  0  0
    8.0939   -5.1476   15.8419 O   0  0  0  0  0  0  0  0  0  0  0  0
    8.8096   -8.6574   15.2805 C   0  0  0  0  0  0  0  0  0  0  0  0
    2.8673  -11.7785   19.3619 C   0  0  0  0  0  0  0  0  0  0  0  0
   11.0846   -4.1703   22.4256 O   0  0  0  0  0  0  0  0  0  0  0  0
   10.2174   -5.2193   20.2985 C   0  0  0  0  0  0  0  0  0  0  0  0
    5.5221   -8.2062   17.0554 Cl  0  0  0  0  0  0  0  0  0  0  0  0
    8.3796   -5.9447   16.6238 C   0  0  0  0  0  0  0  0  0  0  0  0
   10.9724   -4.4553   25.2121 C   0  0  0  0  0  0  0  0  0  0  0  0
    8.1630   -7.2903   16.8945 N   0  0  0  0  0  0  0  0  0  0  0  0
    9.9714   -4.0302   17.9499 C   0  0  0  0  0  0  0  0  0  0  0  0
    5.6478   -7.5346   17.2153 C   0  0  0  0  0  0  0  0  0  0  0  0
    3.6225  -10.1640   18.6322 N   0  0  0  0  0  0  0  0  0  0  0  0
    1.9580   -9.0627   16.9103 C   0  0  0  0  0  0  0  0  0  0  0  0
   10.0329   -4.8216   27.3591 Cl  0  0  0  0  0  0  0  0  0  0  0  0
    8.5550   -7.8787   16.6446 C   0  0  0  0  0  0  0  0  0  0  0  0
   10.8154   -3.4795   18.8801 C   0  0  0  0  0  0  0  0  0  0  0  0
    7.1483   -9.1226   14.9247 C   0  0  0  0  0  0  0  0  0  0  0  0
   11.2574   -3.9657   24.0163 O   0  0  0  0  0  0  0  0  0  0  0  0
   10.0668   -2.4405   23.6460 C   0  0  0  0  0  0  0  0  0  0  0  0
    1.8723  -12.4196   19.7177 F   0  0  0  0  0  0  0  0  0  0  0  0
    9.1726   -1.7615   24.1545 C   0  0  0  0  0  0  0  0  0  0  0  0
   11.0437   -3.5052   21.2043 C   0  0  0  0  0  0  0  0  0  0  0  0
    0.8523  -11.1294   18.1992 C   0  0  0  0  0  0  0  0  0  0  0  0
    9.4687   -5.2839   18.2015 C   0  0  0  0  0  0  0  0  0  0  0  0
    4.2746   -9.0058   17.3063 C   0  0  0  0  0  0  0  0  0  0  0  0
    0.8941  -11.3571   19.0016 N   0  0  0  0  0  0  0  0  0  0  0  0
    2.8783   -8.3460   16.0405 Se  0  0  0  0  0  0  0  0  0  0  0  0
    6.6889   -9.1893   16.0524 C   0  0  0  0  0  0  0  0  0  0  0  0
    1.9757  -10.1786   17.8527 C   0  0  0  0  0  0  0  0  0  0  0  0
   10.8027   -4.1598   20.0030 C   0  0  0  0  0  0  0  0  0  0  0  0
    3.2432  -10.4726   18.5268 He  0  0  0  0  0  0  0  0  0  0  0  0
  1  3  2  0
  1 16  1  0
  1 24  2  0
  1 27  3  0
  2 11  4  0
  2 17  1  0
  2 30  4  0
  3  8  4  0
  3 15  1  0
  3 16  1  0
  3 24  4  0
  3 27  4  0
  5 14  3  0
  5 18  1  0
  5 20  1  0
  5 25  4  0
  6 21  2  0
  6 23  4  0
  7 21  1  0
  7 25  1  0
  8 11  3  0
  8 15  3  0
  8 18  1  0
  8 33  4  0
  9 14  1  0
  9 20  2  0
  9 28  1  0
 10 12  1  0
 10 27  1  0
 11 14  1  0
 11 16  2  0
 11 21  4  0
 11 33  4  0
 12 16  4  0
 12 18  1  0
 12 29  1  0
 12 32  3  0
 13 19  4  0
 13 20  3  0
 14 16  1  0
 15 28  4  0
 16 26  3  0
 16 30  4  0
 16 33  4  0
 18 21  3  0
 18 23  4  0
 18 33  1  0
 19 20  4  0
 19 24  3  0
 19 28  3  0
 19 33  4  0
 20 24  2  0
 20 31  1  0
 21 22  4  0
 21 25  3  0
 21 32  3  0
 22 24  4  0
 23 29  4  0
 25 29  2  0
 25 33  1  0
 26 29  4  0
 26 32  4  0
 27 29  3  0
 27 32  3  0
 28 30  4  0
M  END
$$$$

 Created by Python create_sdf_string function

 34 38  0  0  0  0  0  0  0  0999 V2000
    9.3444   -2.6738   25.8439 C   0  0  0  0  0  0  0  0  0  0  0  0
   10.0922   -3.8169   25.9397 C   0  0  0  0  0  0  0  0  0  0  0  0
    9.5733   -5.9428   19.0633 C   0  0  0  0  0  0  0  0  0  0  0  0
    3.0474  -10.6138   18.4425 C   0  0  0  0  0  0  0  0  0  0  0  0
    8.1947   -5.0308   15.8436 O   0  0  0  0  0  0  0  0  0  0  0  0
    8.5372   -8.5125   15.2291 C   0  0  0  0  0  0  0  0  0  0  0  0
    2.9751  -11.6466   19.4039 C   0  0  0  0  0  0  0  0  0  0  0  0
   11.2461   -4.2404   22.4112 O   0  0  0  0  0  0  0  0  0  0  0  0
   10.2606   -5.3803   20.1435 C   0  0  0  0  0  0  0  0  0  0  0  0
    5.5336   -8.3911   16.9219 C   0  0  0  0  0  0  0  0  0  0  0  0
    8.4610   -5.7200   16.8114 C   0  0  0  0  0  0  0  0  0  0  0  0
   10.8195   -4.3084   24.8378 C   0  0  0  0  0  0  0  0  0  0  0  0
    7.8588   -6.9910   16.9370 N   0  0  0  0  0  0  0  0  0  0  0  0
   10.0298   -4.0238   17.8242 C   0  0  0  0  0  0  0  0  0  0  0  0
    6.4367   -7.3562   17.1150 C   0  0  0  0  0  0  0  0  0  0  0  0
    4.2290   -9.9716   18.1332 N   0  0  0  0  0  0  0  0  0  0  0  0
    1.9535   -9.2357   16.8124 C   0  0  0  0  0  0  0  0  0  0  0  0
   10.0604   -4.5941   27.4140 Cl  0  0  0  0  0  0  0  0  0  0  0  0
    8.7689   -8.1355   16.6889 C   0  0  0  0  0  0  0  0  0  0  0  0
   10.6751   -3.4542   18.8742 C   0  0  0  0  0  0  0  0  0  0  0  0
    7.0976   -9.0359   15.0486 C   0  0  0  0  0  0  0  0  0  0  0  0
   10.7243   -3.6301   23.6329 C   0  0  0  0  0  0  0  0  0  0  0  0
   10.0884   -2.4010   23.5380 C   0  0  0  0  0  0  0  0  0  0  0  0
    1.7771  -12.2452   19.6889 C   0  0  0  0  0  0  0  0  0  0  0  0
    9.3874   -1.9130   24.6686 C   0  0  0  0  0  0  0  0  0  0  0  0
   11.2693   -3.5360   21.2486 C   0  0  0  0  0  0  0  0  0  0  0  0
    0.7107  -10.8340   18.1608 C   0  0  0  0  0  0  0  0  0  0  0  0
    9.4000   -5.2385   17.9292 C   0  0  0  0  0  0  0  0  0  0  0  0
    4.2587   -9.0277   17.2697 C   0  0  0  0  0  0  0  0  0  0  0  0
    0.6723  -11.8645   19.0554 N   0  0  0  0  0  0  0  0  0  0  0  0
    3.1425   -8.6208   16.5818 C   0  0  0  0  0  0  0  0  0  0  0  0
    6.3132   -9.3632   16.1939 C   0  0  0  0  0  0  0  0  0  0  0  0
    1.8926  -10.2189   17.7944 C   0  0  0  0  0  0  0  0  0  0  0  0
   10.7208   -4.1360   20.0617 C   0  0  0  0  0  0  0  0  0  0  0  0
  1  2  4  0
  1 25  4  0
  2 12  4  0
  2 18  1  0
  3  9  4  0
  3 28  4  0
  4  7  4  0
  4 16  4  0
  4 33  4  0
  5 11  2  0
  6 19  1  0
  6 21  1  0
  7 24  4  0
  8 22  1  0
  8 26  1  0
  9 34  4  0
 10 15  1  0
 10 29  1  0
 10 32  1  0
 11 13  1  0
 11 28  1  0
 12 22  4  0
 13 15  1  0
 13 19  1  0
 14 20  4  0
 14 28  4  0
 16 29  4  0
 17 31  4  0
 17 33  4  0
 20 34  4  0
 21 32  1  0
 22 23  4  0
 23 25  4  0
 24 30  4  0
 26 34  1  0
 27 30  4  0
 27 33  4  0
 29 31  4  0
M  END
$$$$

 Created by Python create_sdf_string function

 34 68  0  0  0  0  0  0  0  0999 V2000
    9.7432   -2.4377   25.7385 C   0  0  0  0  0  0  0  0  0  0  0  0
   10.0088   -3.8555   25.9806 C   0  0  0  0  0  0  0  0  0  0  0  0
    9.4929   -5.9012   18.7031 C   0  0  0  0  0  0  0  0  0  0  0  0
    2.9646  -10.8296   18.8158 C   0  0  0  0  0  0  0  0  0  0  0  0
    8.3031   -4.8943   15.9573 O   0  0  0  0  0  0  0  0  0  0  0  0
    8.8082   -8.5186   15.0983 C   0  0  0  0  0  0  0  0  0  0  0  0
    2.8159  -11.6311   19.6049 C   0  0  0  0  0  0  0  0  0  0  0  0
   11.0947   -4.2669   22.2735 O   0  0  0  0  0  0  0  0  0  0  0  0
   10.2183   -5.5011   20.3519 C   0  0  0  0  0  0  0  0  0  0  0  0
    5.7801   -8.3484   16.7831 C   0  0  0  0  0  0  0  0  0  0  0  0
    8.5606   -5.9854   16.7733 C   0  0  0  0  0  0  0  0  0  0  0  0
   10.7462   -3.9276   24.5998 C   0  0  0  0  0  0  0  0  0  0  0  0
   10.0728   -4.1173   17.8202 C   0  0  0  0  0  0  0  0  0  0  0  0
    6.3973   -7.1847   17.2618 O   0  0  0  0  0  0  0  0  0  0  0  0
    4.6088  -10.0238   17.5632 N   0  0  0  0  0  0  0  0  0  0  0  0
    2.3957   -9.4645   16.5930 C   0  0  0  0  0  0  0  0  0  0  0  0
    8.7270   -7.9453   16.6902 C   0  0  0  0  0  0  0  0  0  0  0  0
   10.8212   -3.3591   18.9608 C   0  0  0  0  0  0  0  0  0  0  0  0
    7.2567   -9.0578   14.8789 C   0  0  0  0  0  0  0  0  0  0  0  0
   10.5582   -3.7802   23.3938 C   0  0  0  0  0  0  0  0  0  0  0  0
    1.4882  -12.3014   19.5804 C   0  0  0  0  0  0  0  0  0  0  0  0
    8.9886   -2.0614   24.7689 N   0  0  0  0  0  0  0  0  0  0  0  0
   11.3353   -3.7421   21.1154 C   0  0  0  0  0  0  0  0  0  0  0  0
    0.6211  -11.0086   18.0181 C   0  0  0  0  0  0  0  0  0  0  0  0
    9.1154   -5.1179   18.0062 C   0  0  0  0  0  0  0  0  0  0  0  0
    4.3826   -9.0683   17.3216 C   0  0  0  0  0  0  0  0  0  0  0  0
    0.3721  -12.0658   19.1264 N   0  0  0  0  0  0  0  0  0  0  0  0
    3.1679   -8.7067   16.8842 C   0  0  0  0  0  0  0  0  0  0  0  0
    6.2829   -9.1953   16.1021 O   0  0  0  0  0  0  0  0  0  0  0  0
    1.7129  -10.5687   17.8490 C   0  0  0  0  0  0  0  0  0  0  0  0
   10.8551   -4.0914   20.1748 B   0  0  0  0  0  0  0  0  0  0  0  0
    8.1019   -6.9996   17.0684 He  0  0  0  0  0  0  0  0  0  0  0  0
   10.5130   -4.4590   27.4272 He  0  0  0  0  0  0  0  0  0  0  0  0
   10.2101   -2.4568   23.2218 He  0  0  0  0  0  0  0  0  0  0  0  0
  1  2  4  0
  1  3  3  0
  1  7  2  0
  1 12  4  0
  1 14  4  0
  1 22  1  0
  2 12  4  0
  2 14  4  0
  2 19  2  0
  3  4  3  0
  3  9  4  0
  3 15  4  0
  3 23  4  0
  4  7  4  0
  4 15  4  0
  4 23  2  0
  4 29  3  0
  4 30  4  0
  4 31  4  0
  5 11  2  0
  5 14  2  0
  5 28  4  0
  6 13  1  0
  6 17  1  0
  7 14  2  0
  7 21  4  0
  7 27  3  0
  8 15  2  0
  8 20  2  0
  8 23  1  0
  9 10  3  0
  9 22  3  0
  9 27  3  0
  9 29  3  0
  9 31  4  0
 10 14  4  0
 10 15  4  0
 10 18  2  0
 10 23  2  0
 10 24  1  0
 10 26  1  0
 10 29  1  0
 11 14  3  0
 11 25  1  0
 12 15  4  0
 12 20  4  0
 12 27  4  0
 12 31  1  0
 13 18  4  0
 13 21  2  0
 13 25  4  0
 14 29  3  0
 15 20  1  0
 16 24  1  0
 16 30  4  0
 18 31  4  0
 19 29  1  0
 21 23  2  0
 21 27  1  0
 21 29  3  0
 22 28  3  0
 22 29  2  0
 23 31  1  0
 24 27  4  0
 24 29  4  0
 24 30  3  0
 25 27  2  0
 26 28  4  0
M  END
$$$$

 Created by Python create_sdf_string function

 34 38  0  0  0  0  0  0  0  0999 V2000
    9.4768   -2.5494   25.8036 C   0  0  0  0  0  0  0  0  0  0  0  0
   10.2606   -3.7130   25.8856 C   0  0  0  0  0  0  0  0  0  0  0  0
    9.6055   -5.9749   19.0724 C   0  0  0  0  0  0  0  0  0  0  0  0
    3.0394  -10.7484   18.3962 C   0  0  0  0  0  0  0  0  0  0  0  0
    8.1907   -4.9978   15.8778 O   0  0  0  0  0  0  0  0  0  0  0  0
    8.5596   -8.3972   15.1661 C   0  0  0  0  0  0  0  0  0  0  0  0
    2.9067  -11.7331   19.3994 C   0  0  0  0  0  0  0  0  0  0  0  0
   11.1140   -4.2489   22.3451 O   0  0  0  0  0  0  0  0  0  0  0  0
   10.3071   -5.4589   20.1004 C   0  0  0  0  0  0  0  0  0  0  0  0
    5.6541   -8.4641   16.9359 C   0  0  0  0  0  0  0  0  0  0  0  0
    8.4409   -5.7109   16.8313 C   0  0  0  0  0  0  0  0  0  0  0  0
   10.8184   -4.2478   24.7508 C   0  0  0  0  0  0  0  0  0  0  0  0
    7.8693   -6.9588   16.9791 N   0  0  0  0  0  0  0  0  0  0  0  0
   10.0204   -4.0179   17.8398 C   0  0  0  0  0  0  0  0  0  0  0  0
    6.5055   -7.2062   17.1894 C   0  0  0  0  0  0  0  0  0  0  0  0
    4.2859  -10.1233   18.1059 N   0  0  0  0  0  0  0  0  0  0  0  0
    2.0364   -9.2819   16.8140 C   0  0  0  0  0  0  0  0  0  0  0  0
   10.4685   -4.3687   27.2618 C   0  0  0  0  0  0  0  0  0  0  0  0
    8.7774   -8.1356   16.7005 C   0  0  0  0  0  0  0  0  0  0  0  0
   10.7125   -3.4679   18.8595 C   0  0  0  0  0  0  0  0  0  0  0  0
    7.1633   -8.9927   14.9724 C   0  0  0  0  0  0  0  0  0  0  0  0
   10.6305   -3.6023   23.5567 C   0  0  0  0  0  0  0  0  0  0  0  0
    9.9121   -2.3918   23.4679 C   0  0  0  0  0  0  0  0  0  0  0  0
    1.6766  -12.2411   19.7294 C   0  0  0  0  0  0  0  0  0  0  0  0
    9.3396   -1.8430   24.5967 C   0  0  0  0  0  0  0  0  0  0  0  0
   11.3698   -3.5936   21.2208 C   0  0  0  0  0  0  0  0  0  0  0  0
    0.6808  -11.0053   18.0053 C   0  0  0  0  0  0  0  0  0  0  0  0
    9.4118   -5.2368   17.9260 C   0  0  0  0  0  0  0  0  0  0  0  0
    4.4224   -9.1419   17.2367 C   0  0  0  0  0  0  0  0  0  0  0  0
    0.5746  -11.9294   19.0230 N   0  0  0  0  0  0  0  0  0  0  0  0
    3.3178   -8.7287   16.5766 C   0  0  0  0  0  0  0  0  0  0  0  0
    6.3573   -9.3745   15.9818 O   0  0  0  0  0  0  0  0  0  0  0  0
    1.9157  -10.3627   17.7375 C   0  0  0  0  0  0  0  0  0  0  0  0
   10.7996   -4.2048   20.0204 C   0  0  0  0  0  0  0  0  0  0  0  0
  1  2  4  0
  1 25  4  0
  2 12  4  0
  2 18  1  0
  3  9  4  0
  3 28  4  0
  4  7  4  0
  4 16  4  0
  4 33  4  0
  5 11  2  0
  6 19  1  0
  6 21  1  0
  7 24  4  0
  8 22  1  0
  8 26  1  0
  9 34  4  0
 10 15  1  0
 10 29  1  0
 10 32  1  0
 11 13  1  0
 11 28  1  0
 12 22  4  0
 13 15  1  0
 13 19  1  0
 14 20  4  0
 14 28  4  0
 16 29  4  0
 17 31  4  0
 17 33  4  0
 20 34  4  0
 21 32  1  0
 22 23  4  0
 23 25  4  0
 24 30  4  0
 26 34  1  0
 27 30  4  0
 27 33  4  0
 29 31  4  0
M  END
$$$$

 Created by Python create_sdf_string function

 34 49  0  0  0  0  0  0  0  0999 V2000
    9.8261   -2.6031   25.4532 C   0  0  0  0  0  0  0  0  0  0  0  0
    9.7100   -6.0248   18.6220 C   0  0  0  0  0  0  0  0  0  0  0  0
    3.2560  -10.7133   18.7871 C   0  0  0  0  0  0  0  0  0  0  0  0
    8.5797   -4.8208   15.7817 O   0  0  0  0  0  0  0  0  0  0  0  0
    8.5181   -8.2807   15.2889 O   0  0  0  0  0  0  0  0  0  0  0  0
   11.0981   -4.0849   22.4328 O   0  0  0  0  0  0  0  0  0  0  0  0
   10.2061   -5.2581   20.2227 C   0  0  0  0  0  0  0  0  0  0  0  0
    5.3044   -8.8466   16.9890 C   0  0  0  0  0  0  0  0  0  0  0  0
    8.3825   -5.6073   16.8441 C   0  0  0  0  0  0  0  0  0  0  0  0
   10.7149   -4.3321   24.6764 C   0  0  0  0  0  0  0  0  0  0  0  0
    7.8442   -7.1139   17.4424 N   0  0  0  0  0  0  0  0  0  0  0  0
    9.8379   -3.8215   18.0111 C   0  0  0  0  0  0  0  0  0  0  0  0
    6.5590   -7.5344   17.2806 C   0  0  0  0  0  0  0  0  0  0  0  0
    2.2612   -9.2602   16.5255 C   0  0  0  0  0  0  0  0  0  0  0  0
   10.4904   -4.7355   26.7493 C   0  0  0  0  0  0  0  0  0  0  0  0
    9.1613   -8.2818   16.9216 C   0  0  0  0  0  0  0  0  0  0  0  0
   10.7327   -3.4731   19.1054 C   0  0  0  0  0  0  0  0  0  0  0  0
    7.0315   -8.7354   15.1607 C   0  0  0  0  0  0  0  0  0  0  0  0
   10.2273   -3.5867   24.1043 C   0  0  0  0  0  0  0  0  0  0  0  0
    9.8786   -2.6094   23.3039 C   0  0  0  0  0  0  0  0  0  0  0  0
    1.7652  -12.1989   19.8988 O   0  0  0  0  0  0  0  0  0  0  0  0
    9.2068   -1.8539   24.1956 C   0  0  0  0  0  0  0  0  0  0  0  0
   11.2444   -3.7580   21.1767 C   0  0  0  0  0  0  0  0  0  0  0  0
    0.8890  -11.0420   17.8861 C   0  0  0  0  0  0  0  0  0  0  0  0
    8.9479   -4.7701   17.8873 C   0  0  0  0  0  0  0  0  0  0  0  0
    4.4793   -9.1008   17.2082 C   0  0  0  0  0  0  0  0  0  0  0  0
    0.7720  -11.9370   19.2823 N   0  0  0  0  0  0  0  0  0  0  0  0
    6.5385   -9.3817   16.2652 O   0  0  0  0  0  0  0  0  0  0  0  0
    2.1721  -10.6021   17.9282 C   0  0  0  0  0  0  0  0  0  0  0  0
   10.9071   -4.3499   20.0107 C   0  0  0  0  0  0  0  0  0  0  0  0
   10.2855   -3.5466   26.0244 He  0  0  0  0  0  0  0  0  0  0  0  0
    2.8749  -11.5141   19.4117 He  0  0  0  0  0  0  0  0  0  0  0  0
    3.4601  -10.4137   18.0689 He  0  0  0  0  0  0  0  0  0  0  0  0
    3.2493   -8.5618   16.3473 He  0  0  0  0  0  0  0  0  0  0  0  0
  1 22  4  0
  1 23  1  0
  2 25  4  0
  3 13  2  0
  3 24  1  0
  3 29  4  0
  4  9  2  0
  4 17  4  0
  4 29  4  0
  5 16  1  0
  5 18  4  0
  5 19  1  0
  6  8  2  0
  6 11  2  0
  6 14  2  0
  6 15  2  0
  6 19  1  0
  6 28  4  0
  7  8  1  0
  7 30  4  0
  8 13  1  0
  8 26  1  0
  8 28  1  0
  9 19  3  0
  9 25  1  0
 10 19  4  0
 10 25  2  0
 11 13  1  0
 11 14  1  0
 11 16  3  0
 12 17  4  0
 12 24  2  0
 12 25  4  0
 12 27  1  0
 12 29  4  0
 13 15  2  0
 13 16  4  0
 14 16  2  0
 14 29  3  0
 17 30  4  0
 18 28  1  0
 19 20  4  0
 19 26  4  0
 20 22  4  0
 21 27  4  0
 23 28  4  0
 23 30  1  0
 24 27  2  0
 24 29  4  0
M  END
$$$$

 Created by Python create_sdf_string function

 34 38  0  0  0  0  0  0  0  0999 V2000
    9.5816   -2.5335   25.7366 C   0  0  0  0  0  0  0  0  0  0  0  0
   10.2489   -3.7306   25.8130 C   0  0  0  0  0  0  0  0  0  0  0  0
    9.6413   -5.9752   19.0474 C   0  0  0  0  0  0  0  0  0  0  0  0
    3.1122  -10.6787   18.4481 C   0  0  0  0  0  0  0  0  0  0  0  0
    8.2408   -5.0701   15.8626 O   0  0  0  0  0  0  0  0  0  0  0  0
    8.4937   -8.3446   15.2836 C   0  0  0  0  0  0  0  0  0  0  0  0
    2.9814  -11.6093   19.5095 N   0  0  0  0  0  0  0  0  0  0  0  0
   11.0579   -4.3264   22.3489 O   0  0  0  0  0  0  0  0  0  0  0  0
   10.4075   -5.5102   20.0504 C   0  0  0  0  0  0  0  0  0  0  0  0
    5.7129   -8.5943   17.0432 C   0  0  0  0  0  0  0  0  0  0  0  0
    8.4461   -5.7235   16.8747 C   0  0  0  0  0  0  0  0  0  0  0  0
   10.7989   -4.2731   24.6513 C   0  0  0  0  0  0  0  0  0  0  0  0
    7.8666   -6.9433   17.0980 N   0  0  0  0  0  0  0  0  0  0  0  0
    9.9290   -3.9436   17.9140 C   0  0  0  0  0  0  0  0  0  0  0  0
    6.5113   -7.3625   17.2986 C   0  0  0  0  0  0  0  0  0  0  0  0
    4.3305  -10.0405   18.1676 N   0  0  0  0  0  0  0  0  0  0  0  0
    2.1326   -9.3718   16.6965 C   0  0  0  0  0  0  0  0  0  0  0  0
   10.3925   -4.3563   27.0948 C   0  0  0  0  0  0  0  0  0  0  0  0
    8.7636   -8.1149   16.7902 C   0  0  0  0  0  0  0  0  0  0  0  0
   10.5814   -3.3905   18.9554 C   0  0  0  0  0  0  0  0  0  0  0  0
    7.1286   -8.7900   15.0086 C   0  0  0  0  0  0  0  0  0  0  0  0
   10.6021   -3.6608   23.4631 C   0  0  0  0  0  0  0  0  0  0  0  0
    9.9291   -2.4674   23.3401 C   0  0  0  0  0  0  0  0  0  0  0  0
    1.7772  -12.1439   19.8124 C   0  0  0  0  0  0  0  0  0  0  0  0
    9.4020   -1.8643   24.5211 C   0  0  0  0  0  0  0  0  0  0  0  0
   11.4215   -3.6871   21.2188 C   0  0  0  0  0  0  0  0  0  0  0  0
    0.8004  -10.9815   18.0333 C   0  0  0  0  0  0  0  0  0  0  0  0
    9.3836   -5.2097   17.9589 C   0  0  0  0  0  0  0  0  0  0  0  0
    4.4504   -9.1658   17.2655 C   0  0  0  0  0  0  0  0  0  0  0  0
    0.7188  -11.8669   19.0612 N   0  0  0  0  0  0  0  0  0  0  0  0
    3.3892   -8.8065   16.4929 C   0  0  0  0  0  0  0  0  0  0  0  0
    6.4163   -9.4598   16.0731 O   0  0  0  0  0  0  0  0  0  0  0  0
    2.0191  -10.3526   17.7095 C   0  0  0  0  0  0  0  0  0  0  0  0
   10.7765   -4.1938   20.0499 C   0  0  0  0  0  0  0  0  0  0  0  0
  1  2  4  0
  1 25  4  0
  2 12  4  0
  2 18  1  0
  3  9  4  0
  3 28  4  0
  4  7  4  0
  4 16  4  0
  4 33  4  0
  5 11  2  0
  6 19  1  0
  6 21  1  0
  7 24  4  0
  8 22  1  0
  8 26  1  0
  9 34  4  0
 10 15  1  0
 10 29  1  0
 10 32  1  0
 11 13  1  0
 11 28  1  0
 12 22  4  0
 13 15  1  0
 13 19  1  0
 14 20  4  0
 14 28  4  0
 16 29  4  0
 17 31  4  0
 17 33  4  0
 20 34  4  0
 21 32  1  0
 22 23  4  0
 23 25  4  0
 24 30  4  0
 26 34  1  0
 27 30  4  0
 27 33  4  0
 29 31  4  0
M  END
$$$$

 Created by Python create_sdf_string function

 34 63  0  0  0  0  0  0  0  0999 V2000
    9.8453   -1.9794   25.6212 C   0  0  0  0  0  0  0  0  0  0  0  0
   10.2388   -3.6486   25.7642 C   0  0  0  0  0  0  0  0  0  0  0  0
    9.6766   -6.0057   19.1712 C   0  0  0  0  0  0  0  0  0  0  0  0
    3.2187  -10.8276   18.6564 C   0  0  0  0  0  0  0  0  0  0  0  0
    8.1465   -5.2543   16.2052 O   0  0  0  0  0  0  0  0  0  0  0  0
    8.5954   -8.5930   15.2410 C   0  0  0  0  0  0  0  0  0  0  0  0
    3.0336  -11.6010   19.4942 N   0  0  0  0  0  0  0  0  0  0  0  0
   10.9687   -4.0863   22.4312 O   0  0  0  0  0  0  0  0  0  0  0  0
   10.5469   -5.5691   20.1401 C   0  0  0  0  0  0  0  0  0  0  0  0
    5.8107   -8.4439   17.0125 C   0  0  0  0  0  0  0  0  0  0  0  0
    8.3915   -5.7671   17.0017 C   0  0  0  0  0  0  0  0  0  0  0  0
   10.7769   -3.8451   24.5810 C   0  0  0  0  0  0  0  0  0  0  0  0
    9.7047   -3.9613   18.0978 C   0  0  0  0  0  0  0  0  0  0  0  0
    6.4214   -7.5853   17.5307 C   0  0  0  0  0  0  0  0  0  0  0  0
    4.2515   -9.9509   17.9048 N   0  0  0  0  0  0  0  0  0  0  0  0
    2.1728   -9.5049   16.8032 C   0  0  0  0  0  0  0  0  0  0  0  0
   10.4771   -4.2472   26.9276 C   0  0  0  0  0  0  0  0  0  0  0  0
    8.8325   -8.0884   17.0646 C   0  0  0  0  0  0  0  0  0  0  0  0
   10.6077   -3.2864   18.8127 C   0  0  0  0  0  0  0  0  0  0  0  0
    7.0044   -8.8474   14.8721 C   0  0  0  0  0  0  0  0  0  0  0  0
   11.0701   -3.8680   23.6033 C   0  0  0  0  0  0  0  0  0  0  0  0
   10.0160   -2.3919   23.4825 C   0  0  0  0  0  0  0  0  0  0  0  0
    1.7564  -11.9893   19.6680 C   0  0  0  0  0  0  0  0  0  0  0  0
    9.7996   -1.8334   24.1494 C   0  0  0  0  0  0  0  0  0  0  0  0
   11.5124   -3.6755   21.4876 C   0  0  0  0  0  0  0  0  0  0  0  0
    0.6358  -11.1250   18.1218 C   0  0  0  0  0  0  0  0  0  0  0  0
    4.5238   -9.3912   17.3715 C   0  0  0  0  0  0  0  0  0  0  0  0
    0.6097  -11.7390   18.9549 N   0  0  0  0  0  0  0  0  0  0  0  0
    3.4327   -8.7750   16.8189 C   0  0  0  0  0  0  0  0  0  0  0  0
    6.7783   -9.3390   16.1848 O   0  0  0  0  0  0  0  0  0  0  0  0
    1.9894  -10.2099   17.6826 C   0  0  0  0  0  0  0  0  0  0  0  0
   10.8945   -4.3610   19.9847 C   0  0  0  0  0  0  0  0  0  0  0  0
    7.9578   -7.0432   16.8011 He  0  0  0  0  0  0  0  0  0  0  0  0
    9.4075   -5.2611   17.8322 He  0  0  0  0  0  0  0  0  0  0  0  0
  1  2  4  0
  1  7  3  0
  1 13  1  0
  1 16  3  0
  1 24  4  0
  2 12  4  0
  2 13  2  0
  2 16  3  0
  2 17  1  0
  3  9  4  0
  3 10  2  0
  4  7  4  0
  4 15  4  0
  4 21  1  0
  4 31  4  0
  4 32  1  0
  5 11  2  0
  6 10  2  0
  6 11  2  0
  6 18  1  0
  6 20  1  0
  7 20  4  0
  7 23  4  0
  7 26  4  0
  8 10  4  0
  8 21  1  0
  9 24  4  0
  9 32  1  0
 10 14  1  0
 10 19  4  0
 10 26  2  0
 10 27  1  0
 10 30  4  0
 10 31  2  0
 11 24  4  0
 11 28  4  0
 11 30  2  0
 12 21  4  0
 13 16  2  0
 13 19  4  0
 15 17  3  0
 15 27  4  0
 15 29  3  0
 16 20  4  0
 16 31  4  0
 18 25  2  0
 19 32  4  0
 20 25  2  0
 20 29  3  0
 20 30  1  0
 21 22  4  0
 21 26  2  0
 21 30  2  0
 21 31  2  0
 22 24  4  0
 22 26  4  0
 23 28  4  0
 23 29  3  0
 24 26  1  0
 25 32  1  0
 26 28  4  0
 26 31  4  0
 27 29  4  0
M  END
$$$$

 Created by Python create_sdf_string function

 34 38  0  0  0  0  0  0  0  0999 V2000
    9.7698   -2.2561   25.6734 C   0  0  0  0  0  0  0  0  0  0  0  0
   10.3598   -3.4903   25.8029 C   0  0  0  0  0  0  0  0  0  0  0  0
    9.7723   -6.0803   19.0380 C   0  0  0  0  0  0  0  0  0  0  0  0
    3.1091  -10.6961   18.4641 C   0  0  0  0  0  0  0  0  0  0  0  0
    8.1028   -5.0936   16.0370 O   0  0  0  0  0  0  0  0  0  0  0  0
    8.5852   -8.4893   15.2296 C   0  0  0  0  0  0  0  0  0  0  0  0
    2.9718  -11.5944   19.4840 N   0  0  0  0  0  0  0  0  0  0  0  0
   11.1714   -4.2921   22.3641 O   0  0  0  0  0  0  0  0  0  0  0  0
   10.4999   -5.5783   20.0548 C   0  0  0  0  0  0  0  0  0  0  0  0
    5.7663   -8.6061   17.1275 C   0  0  0  0  0  0  0  0  0  0  0  0
    8.3938   -5.7922   17.0053 C   0  0  0  0  0  0  0  0  0  0  0  0
   10.8314   -4.1514   24.6710 C   0  0  0  0  0  0  0  0  0  0  0  0
    7.8777   -7.0758   17.1153 N   0  0  0  0  0  0  0  0  0  0  0  0
    9.8700   -4.0053   17.9553 C   0  0  0  0  0  0  0  0  0  0  0  0
    6.5258   -7.4764   17.3571 C   0  0  0  0  0  0  0  0  0  0  0  0
    4.3302  -10.1162   18.2064 N   0  0  0  0  0  0  0  0  0  0  0  0
    2.1655   -9.3113   16.7744 C   0  0  0  0  0  0  0  0  0  0  0  0
   10.4062   -4.0802   27.1052 C   0  0  0  0  0  0  0  0  0  0  0  0
    8.8148   -8.2060   16.7281 C   0  0  0  0  0  0  0  0  0  0  0  0
   10.6162   -3.4471   18.9516 C   0  0  0  0  0  0  0  0  0  0  0  0
    7.1459   -8.8665   14.9843 C   0  0  0  0  0  0  0  0  0  0  0  0
   10.7233   -3.5697   23.4479 C   0  0  0  0  0  0  0  0  0  0  0  0
   10.1809   -2.2970   23.2951 C   0  0  0  0  0  0  0  0  0  0  0  0
    1.7502  -12.1033   19.7437 C   0  0  0  0  0  0  0  0  0  0  0  0
    9.6626   -1.6225   24.4196 C   0  0  0  0  0  0  0  0  0  0  0  0
   11.5156   -3.7071   21.2031 C   0  0  0  0  0  0  0  0  0  0  0  0
    0.7707  -10.9428   18.0332 C   0  0  0  0  0  0  0  0  0  0  0  0
    9.3782   -5.2846   18.0344 C   0  0  0  0  0  0  0  0  0  0  0  0
    4.5297   -9.1642   17.3428 C   0  0  0  0  0  0  0  0  0  0  0  0
    0.6628  -11.8097   19.0464 N   0  0  0  0  0  0  0  0  0  0  0  0
    3.4749   -8.7564   16.5960 C   0  0  0  0  0  0  0  0  0  0  0  0
    6.4880   -9.4512   16.1350 O   0  0  0  0  0  0  0  0  0  0  0  0
    2.0048  -10.3152   17.7390 C   0  0  0  0  0  0  0  0  0  0  0  0
   10.8496   -4.2590   20.0276 C   0  0  0  0  0  0  0  0  0  0  0  0
  1  2  4  0
  1 25  4  0
  2 12  4  0
  2 18  1  0
  3  9  4  0
  3 28  4  0
  4  7  4  0
  4 16  4  0
  4 33  4  0
  5 11  2  0
  6 19  1  0
  6 21  1  0
  7 24  4  0
  8 22  1  0
  8 26  1  0
  9 34  4  0
 10 15  1  0
 10 29  1  0
 10 32  1  0
 11 13  1  0
 11 28  1  0
 12 22  4  0
 13 15  1  0
 13 19  1  0
 14 20  4  0
 14 28  4  0
 16 29  4  0
 17 31  4  0
 17 33  4  0
 20 34  4  0
 21 32  1  0
 22 23  4  0
 23 25  4  0
 24 30  4  0
 26 34  1  0
 27 30  4  0
 27 33  4  0
 29 31  4  0
M  END
$$$$

 Created by Python create_sdf_string function

 34 59  0  0  0  0  0  0  0  0999 V2000
   10.1031   -3.4016   25.7602 C   0  0  0  0  0  0  0  0  0  0  0  0
    9.9852   -6.1991   19.1018 C   0  0  0  0  0  0  0  0  0  0  0  0
    3.0554  -10.5785   18.6363 C   0  0  0  0  0  0  0  0  0  0  0  0
    8.1939   -4.9973   16.0765 O   0  0  0  0  0  0  0  0  0  0  0  0
    8.5229   -8.0364   15.4958 C   0  0  0  0  0  0  0  0  0  0  0  0
    3.0621  -11.4399   19.4697 N   0  0  0  0  0  0  0  0  0  0  0  0
   11.1168   -4.2342   22.4106 O   0  0  0  0  0  0  0  0  0  0  0  0
    5.9520   -8.5442   17.2074 C   0  0  0  0  0  0  0  0  0  0  0  0
    8.3537   -5.8148   17.1383 C   0  0  0  0  0  0  0  0  0  0  0  0
   10.8587   -4.2123   24.9319 C   0  0  0  0  0  0  0  0  0  0  0  0
    8.1006   -6.7885   16.9944 N   0  0  0  0  0  0  0  0  0  0  0  0
    9.9005   -3.9494   18.0698 O   0  0  0  0  0  0  0  0  0  0  0  0
    6.2897   -7.5260   17.6138 C   0  0  0  0  0  0  0  0  0  0  0  0
   10.4827   -3.7686   27.1823 C   0  0  0  0  0  0  0  0  0  0  0  0
    8.8996   -7.9418   16.6895 C   0  0  0  0  0  0  0  0  0  0  0  0
   10.6526   -3.1461   19.0151 C   0  0  0  0  0  0  0  0  0  0  0  0
    7.1294   -8.6233   14.9774 C   0  0  0  0  0  0  0  0  0  0  0  0
   10.4587   -3.6620   23.0720 C   0  0  0  0  0  0  0  0  0  0  0  0
   10.1824   -2.0979   23.1893 C   0  0  0  0  0  0  0  0  0  0  0  0
    1.7647  -12.2405   19.7323 C   0  0  0  0  0  0  0  0  0  0  0  0
    9.8999   -1.8113   24.5215 C   0  0  0  0  0  0  0  0  0  0  0  0
   11.6026   -3.7012   21.3973 C   0  0  0  0  0  0  0  0  0  0  0  0
    0.7822  -11.0425   18.0342 C   0  0  0  0  0  0  0  0  0  0  0  0
    9.4993   -5.0371   18.0570 C   0  0  0  0  0  0  0  0  0  0  0  0
    4.5061   -9.2559   17.0679 C   0  0  0  0  0  0  0  0  0  0  0  0
    0.7190  -11.9069   19.1369 N   0  0  0  0  0  0  0  0  0  0  0  0
    3.6472   -8.7315   16.6784 C   0  0  0  0  0  0  0  0  0  0  0  0
    6.6676   -9.2959   16.2061 O   0  0  0  0  0  0  0  0  0  0  0  0
    1.7651  -10.0587   17.5992 S   0  0  0  0  0  0  0  0  0  0  0  0
   11.0089   -4.1203   20.0900 C   0  0  0  0  0  0  0  0  0  0  0  0
    9.7664   -1.9792   25.5618 He  0  0  0  0  0  0  0  0  0  0  0  0
   10.6012   -5.4076   20.0603 He  0  0  0  0  0  0  0  0  0  0  0  0
    4.2280  -10.2370   18.5205 He  0  0  0  0  0  0  0  0  0  0  0  0
    2.1895   -9.2281   16.9289 He  0  0  0  0  0  0  0  0  0  0  0  0
  1 10  4  0
  1 11  1  0
  1 14  1  0
  1 27  3  0
  2 10  4  0
  2 14  4  0
  2 24  4  0
  3  6  4  0
  3 12  4  0
  3 26  3  0
  3 29  4  0
  4  5  2  0
  4  9  2  0
  4 16  3  0
  5  8  2  0
  5 12  2  0
  5 15  1  0
  5 17  1  0
  5 18  3  0
  5 19  3  0
  5 20  3  0
  5 25  1  0
  5 30  4  0
  6 12  4  0
  6 20  4  0
  6 21  1  0
  6 23  4  0
  6 24  2  0
  7 18  1  0
  7 22  1  0
  7 26  1  0
  8 13  1  0
  8 20  3  0
  8 25  1  0
  8 28  1  0
  9 11  1  0
  9 24  1  0
  9 28  4  0
 10 18  4  0
 10 29  3  0
 11 13  4  0
 11 21  2  0
 12 16  4  0
 12 24  4  0
 14 21  1  0
 16 28  3  0
 16 30  4  0
 17 28  1  0
 18 19  2  0
 18 27  1  0
 19 21  4  0
 20 26  4  0
 21 24  3  0
 22 30  1  0
 23 26  1  0
 23 29  1  0
 25 27  4  0
 25 30  2  0
 26 28  4  0
M  END
$$$$

 Created by Python create_sdf_string function

 34 38  0  0  0  0  0  0  0  0999 V2000
    9.7794   -2.0685   25.6789 C   0  0  0  0  0  0  0  0  0  0  0  0
   10.2790   -3.3302   25.8453 C   0  0  0  0  0  0  0  0  0  0  0  0
    9.8920   -6.0206   19.0831 C   0  0  0  0  0  0  0  0  0  0  0  0
    3.1277  -10.6511   18.4838 C   0  0  0  0  0  0  0  0  0  0  0  0
    8.1730   -4.9706   16.1254 O   0  0  0  0  0  0  0  0  0  0  0  0
    8.4935   -8.1408   15.2094 C   0  0  0  0  0  0  0  0  0  0  0  0
    2.9969  -11.5529   19.4747 N   0  0  0  0  0  0  0  0  0  0  0  0
   11.0943   -4.2993   22.4221 O   0  0  0  0  0  0  0  0  0  0  0  0
   10.6262   -5.5225   20.1006 C   0  0  0  0  0  0  0  0  0  0  0  0
    5.9403   -8.6331   17.2326 C   0  0  0  0  0  0  0  0  0  0  0  0
    8.4590   -5.6868   17.0685 C   0  0  0  0  0  0  0  0  0  0  0  0
   10.6953   -4.0929   24.7487 C   0  0  0  0  0  0  0  0  0  0  0  0
    7.9200   -6.9572   17.2346 N   0  0  0  0  0  0  0  0  0  0  0  0
    9.8954   -3.9264   18.0418 C   0  0  0  0  0  0  0  0  0  0  0  0
    6.5177   -7.3873   17.4337 C   0  0  0  0  0  0  0  0  0  0  0  0
    4.3594  -10.1045   18.2340 N   0  0  0  0  0  0  0  0  0  0  0  0
    2.2082   -9.2295   16.8131 C   0  0  0  0  0  0  0  0  0  0  0  0
   10.3867   -3.8680   27.1869 C   0  0  0  0  0  0  0  0  0  0  0  0
    8.8162   -8.0740   16.7477 C   0  0  0  0  0  0  0  0  0  0  0  0
   10.6489   -3.3817   19.0322 C   0  0  0  0  0  0  0  0  0  0  0  0
    7.1259   -8.6399   15.0143 C   0  0  0  0  0  0  0  0  0  0  0  0
   10.6724   -3.5318   23.5025 C   0  0  0  0  0  0  0  0  0  0  0  0
   10.1878   -2.2397   23.2817 C   0  0  0  0  0  0  0  0  0  0  0  0
    1.7851  -12.1521   19.7179 C   0  0  0  0  0  0  0  0  0  0  0  0
    9.6889   -1.5065   24.3859 C   0  0  0  0  0  0  0  0  0  0  0  0
   11.5731   -3.6765   21.2773 C   0  0  0  0  0  0  0  0  0  0  0  0
    0.7832  -10.8933   18.0544 C   0  0  0  0  0  0  0  0  0  0  0  0
    9.4502   -5.2137   18.0873 C   0  0  0  0  0  0  0  0  0  0  0  0
    4.5953   -9.1311   17.3770 C   0  0  0  0  0  0  0  0  0  0  0  0
    0.6936  -11.8457   18.9824 N   0  0  0  0  0  0  0  0  0  0  0  0
    3.5127   -8.7084   16.6332 C   0  0  0  0  0  0  0  0  0  0  0  0
    6.5869   -9.4182   16.1332 O   0  0  0  0  0  0  0  0  0  0  0  0
    2.0404  -10.2481   17.7735 C   0  0  0  0  0  0  0  0  0  0  0  0
   10.9458   -4.1911   20.0862 C   0  0  0  0  0  0  0  0  0  0  0  0
  1  2  4  0
  1 25  4  0
  2 12  4  0
  2 18  1  0
  3  9  4  0
  3 28  4  0
  4  7  4  0
  4 16  4  0
  4 33  4  0
  5 11  2  0
  6 19  1  0
  6 21  1  0
  7 24  4  0
  8 22  1  0
  8 26  1  0
  9 34  4  0
 10 15  1  0
 10 29  1  0
 10 32  1  0
 11 13  1  0
 11 28  1  0
 12 22  4  0
 13 15  1  0
 13 19  1  0
 14 20  4  0
 14 28  4  0
 16 29  4  0
 17 31  4  0
 17 33  4  0
 20 34  4  0
 21 32  1  0
 22 23  4  0
 23 25  4  0
 24 30  4  0
 26 34  1  0
 27 30  4  0
 27 33  4  0
 29 31  4  0
M  END
$$$$

 Created by Python create_sdf_string function

 34 56  0  0  0  0  0  0  0  0999 V2000
   10.3936   -1.8387   25.6075 C   0  0  0  0  0  0  0  0  0  0  0  0
   10.4123   -3.2489   26.0113 C   0  0  0  0  0  0  0  0  0  0  0  0
    9.8920   -6.1391   18.6884 C   0  0  0  0  0  0  0  0  0  0  0  0
    3.3842  -10.5327   18.7475 C   0  0  0  0  0  0  0  0  0  0  0  0
    8.3568   -4.8721   16.4654 O   0  0  0  0  0  0  0  0  0  0  0  0
    8.1847   -8.0051   15.3479 C   0  0  0  0  0  0  0  0  0  0  0  0
    3.0650  -11.4571   19.5286 N   0  0  0  0  0  0  0  0  0  0  0  0
   11.0917   -4.3304   22.5293 O   0  0  0  0  0  0  0  0  0  0  0  0
   10.8041   -5.2603   20.1228 C   0  0  0  0  0  0  0  0  0  0  0  0
    6.0585   -8.3632   17.1010 C   0  0  0  0  0  0  0  0  0  0  0  0
    8.5181   -5.6143   17.1268 C   0  0  0  0  0  0  0  0  0  0  0  0
    7.8047   -7.3101   17.3344 N   0  0  0  0  0  0  0  0  0  0  0  0
    9.9227   -4.0183   18.0383 C   0  0  0  0  0  0  0  0  0  0  0  0
    6.6529   -7.7075   17.2655 C   0  0  0  0  0  0  0  0  0  0  0  0
    4.1896  -10.2790   18.4719 N   0  0  0  0  0  0  0  0  0  0  0  0
    2.3009   -9.0550   16.5947 C   0  0  0  0  0  0  0  0  0  0  0  0
   10.3775   -3.4908   27.5204 C   0  0  0  0  0  0  0  0  0  0  0  0
    8.7648   -8.2501   16.5669 C   0  0  0  0  0  0  0  0  0  0  0  0
   10.5709   -3.3595   19.0397 C   0  0  0  0  0  0  0  0  0  0  0  0
    7.1636   -8.7722   14.9791 C   0  0  0  0  0  0  0  0  0  0  0  0
   10.7152   -3.3529   23.1106 C   0  0  0  0  0  0  0  0  0  0  0  0
   10.1671   -2.2298   23.4686 F   0  0  0  0  0  0  0  0  0  0  0  0
    9.8990   -1.4145   24.4068 C   0  0  0  0  0  0  0  0  0  0  0  0
   11.5892   -3.6214   21.2908 C   0  0  0  0  0  0  0  0  0  0  0  0
    0.7559  -10.9407   18.3924 C   0  0  0  0  0  0  0  0  0  0  0  0
    9.1419   -5.5689   17.9872 C   0  0  0  0  0  0  0  0  0  0  0  0
    4.6190   -8.9396   17.6909 C   0  0  0  0  0  0  0  0  0  0  0  0
    0.6124  -11.8792   18.7310 N   0  0  0  0  0  0  0  0  0  0  0  0
    3.7983   -8.9524   16.5024 C   0  0  0  0  0  0  0  0  0  0  0  0
    6.5894   -9.3991   15.7242 O   0  0  0  0  0  0  0  0  0  0  0  0
    2.0249   -9.7943   17.7514 C   0  0  0  0  0  0  0  0  0  0  0  0
   10.7890   -4.0125   20.2339 C   0  0  0  0  0  0  0  0  0  0  0  0
   10.6870   -4.0012   24.8558 He  0  0  0  0  0  0  0  0  0  0  0  0
    1.7995  -12.0558   19.6910 He  0  0  0  0  0  0  0  0  0  0  0  0
  1  2  4  0
  1  4  2  0
  1  6  1  0
  1  8  4  0
  1 16  3  0
  1 23  4  0
  2 17  1  0
  2 18  3  0
  3  9  4  0
  3 26  4  0
  4  7  4  0
  4 15  4  0
  4 16  3  0
  4 20  4  0
  4 21  4  0
  5 11  2  0
  5 16  4  0
  6  7  1  0
  6 18  1  0
  6 20  1  0
  6 31  1  0
  7 20  1  0
  7 27  1  0
  7 28  1  0
  8 21  1  0
  8 24  1  0
  9 29  2  0
  9 32  4  0
 10 16  2  0
 10 27  1  0
 10 30  1  0
 11 12  1  0
 11 26  1  0
 11 27  4  0
 11 28  2  0
 12 14  1  0
 12 18  1  0
 13 19  4  0
 13 26  4  0
 13 28  4  0
 14 32  3  0
 15 27  4  0
 16 27  3  0
 16 31  4  0
 17 21  2  0
 18 20  4  0
 18 26  4  0
 19 32  4  0
 20 30  1  0
 22 23  4  0
 24 32  1  0
 25 28  4  0
 25 31  4  0
 26 30  1  0
 27 29  4  0
 28 30  3  0
M  END
$$$$

 Created by Python create_sdf_string function

 34 38  0  0  0  0  0  0  0  0999 V2000
   10.0851   -1.8058   25.7451 C   0  0  0  0  0  0  0  0  0  0  0  0
   10.4448   -3.1236   25.9448 C   0  0  0  0  0  0  0  0  0  0  0  0
    9.9542   -6.0928   19.0889 C   0  0  0  0  0  0  0  0  0  0  0  0
    3.1616  -10.5822   18.5678 C   0  0  0  0  0  0  0  0  0  0  0  0
    8.1238   -5.0608   16.1868 O   0  0  0  0  0  0  0  0  0  0  0  0
    8.2980   -8.0692   15.1141 C   0  0  0  0  0  0  0  0  0  0  0  0
    2.9578  -11.5342   19.5413 N   0  0  0  0  0  0  0  0  0  0  0  0
   11.0925   -4.1981   22.4867 O   0  0  0  0  0  0  0  0  0  0  0  0
   10.6519   -5.5322   20.1154 C   0  0  0  0  0  0  0  0  0  0  0  0
    6.0220   -8.7424   17.1683 C   0  0  0  0  0  0  0  0  0  0  0  0
    8.4777   -5.7929   17.1152 C   0  0  0  0  0  0  0  0  0  0  0  0
   10.7470   -3.9598   24.8308 C   0  0  0  0  0  0  0  0  0  0  0  0
    7.9535   -7.0630   17.2379 N   0  0  0  0  0  0  0  0  0  0  0  0
    9.8594   -3.9753   18.0610 C   0  0  0  0  0  0  0  0  0  0  0  0
    6.5392   -7.4708   17.3501 C   0  0  0  0  0  0  0  0  0  0  0  0
    4.3961  -10.0202   18.3529 N   0  0  0  0  0  0  0  0  0  0  0  0
    2.3174   -9.2302   16.7878 C   0  0  0  0  0  0  0  0  0  0  0  0
   10.4868   -3.6150   27.3024 C   0  0  0  0  0  0  0  0  0  0  0  0
    8.7460   -8.1449   16.5979 C   0  0  0  0  0  0  0  0  0  0  0  0
   10.5817   -3.3941   19.0564 C   0  0  0  0  0  0  0  0  0  0  0  0
    7.1017   -8.7833   14.8546 C   0  0  0  0  0  0  0  0  0  0  0  0
   10.6884   -3.4151   23.5721 C   0  0  0  0  0  0  0  0  0  0  0  0
   10.2451   -2.1424   23.3345 C   0  0  0  0  0  0  0  0  0  0  0  0
    1.7316  -12.1228   19.6714 C   0  0  0  0  0  0  0  0  0  0  0  0
    9.9472   -1.3067   24.4393 C   0  0  0  0  0  0  0  0  0  0  0  0
   11.5226   -3.6381   21.3178 C   0  0  0  0  0  0  0  0  0  0  0  0
    0.8298  -10.7745   18.0397 C   0  0  0  0  0  0  0  0  0  0  0  0
    9.4788   -5.2833   18.0924 C   0  0  0  0  0  0  0  0  0  0  0  0
    4.6748   -9.1738   17.3890 C   0  0  0  0  0  0  0  0  0  0  0  0
    0.6697  -11.7122   18.9627 N   0  0  0  0  0  0  0  0  0  0  0  0
    3.6458   -8.7563   16.5771 C   0  0  0  0  0  0  0  0  0  0  0  0
    6.4714   -9.3976   15.9153 O   0  0  0  0  0  0  0  0  0  0  0  0
    2.1126  -10.1834   17.7865 C   0  0  0  0  0  0  0  0  0  0  0  0
   10.9205   -4.2061   20.1174 C   0  0  0  0  0  0  0  0  0  0  0  0
  1  2  4  0
  1 25  4  0
  2 12  4  0
  2 18  1  0
  3  9  4  0
  3 28  4  0
  4  7  4  0
  4 16  4  0
  4 33  4  0
  5 11  2  0
  6 19  1  0
  6 21  1  0
  7 24  4  0
  8 22  1  0
  8 26  1  0
  9 34  4  0
 10 15  1  0
 10 29  1  0
 10 32  1  0
 11 13  1  0
 11 28  1  0
 12 22  4  0
 13 15  1  0
 13 19  1  0
 14 20  4  0
 14 28  4  0
 16 29  4  0
 17 31  4  0
 17 33  4  0
 20 34  4  0
 21 32  1  0
 22 23  4  0
 23 25  4  0
 24 30  4  0
 26 34  1  0
 27 30  4  0
 27 33  4  0
 29 31  4  0
M  END
$$$$

 Created by Python create_sdf_string function

 34 70  0  0  0  0  0  0  0  0999 V2000
   10.0241   -1.9642   25.5376 C   0  0  0  0  0  0  0  0  0  0  0  0
   10.3678   -3.2305   25.8987 C   0  0  0  0  0  0  0  0  0  0  0  0
    9.8873   -6.0361   19.3082 C   0  0  0  0  0  0  0  0  0  0  0  0
    2.9475  -10.4393   18.3526 C   0  0  0  0  0  0  0  0  0  0  0  0
    8.2831   -5.0812   16.1032 P   0  0  0  0  0  0  0  0  0  0  0  0
    2.9695  -11.5146   19.6498 N   0  0  0  0  0  0  0  0  0  0  0  0
   11.0954   -4.1185   22.5149 O   0  0  0  0  0  0  0  0  0  0  0  0
   10.3725   -5.5127   20.0774 C   0  0  0  0  0  0  0  0  0  0  0  0
    5.9298   -8.8955   16.9889 B   0  0  0  0  0  0  0  0  0  0  0  0
    8.4209   -5.8683   17.1868 C   0  0  0  0  0  0  0  0  0  0  0  0
   10.9847   -4.0808   25.0609 C   0  0  0  0  0  0  0  0  0  0  0  0
    7.6408   -7.1552   17.0540 N   0  0  0  0  0  0  0  0  0  0  0  0
    9.8263   -3.9926   18.2242 O   0  0  0  0  0  0  0  0  0  0  0  0
    6.5408   -7.4168   17.3367 C   0  0  0  0  0  0  0  0  0  0  0  0
    4.4587  -10.0015   18.4350 N   0  0  0  0  0  0  0  0  0  0  0  0
    2.3698   -9.1916   17.0866 C   0  0  0  0  0  0  0  0  0  0  0  0
   10.3736   -3.4703   27.4440 C   0  0  0  0  0  0  0  0  0  0  0  0
   10.5942   -3.3930   18.9368 O   0  0  0  0  0  0  0  0  0  0  0  0
    7.0701   -8.8126   14.9305 C   0  0  0  0  0  0  0  0  0  0  0  0
   10.9331   -3.4775   23.8849 C   0  0  0  0  0  0  0  0  0  0  0  0
   10.3303   -2.2002   23.1642 C   0  0  0  0  0  0  0  0  0  0  0  0
    1.6608  -12.2475   19.5978 C   0  0  0  0  0  0  0  0  0  0  0  0
    9.9677   -1.5173   24.4135 C   0  0  0  0  0  0  0  0  0  0  0  0
   11.4768   -3.7100   21.2346 C   0  0  0  0  0  0  0  0  0  0  0  0
    0.6565  -10.6796   18.0956 C   0  0  0  0  0  0  0  0  0  0  0  0
    9.4927   -4.9767   18.4736 C   0  0  0  0  0  0  0  0  0  0  0  0
    4.5349   -9.1178   17.1430 C   0  0  0  0  0  0  0  0  0  0  0  0
    0.3994  -11.6773   18.6134 N   0  0  0  0  0  0  0  0  0  0  0  0
    3.6044   -8.8267   16.8090 C   0  0  0  0  0  0  0  0  0  0  0  0
    6.2920   -9.7856   15.7917 O   0  0  0  0  0  0  0  0  0  0  0  0
    2.1288  -10.1542   18.2411 N   0  0  0  0  0  0  0  0  0  0  0  0
   10.5702   -4.2622   19.9431 C   0  0  0  0  0  0  0  0  0  0  0  0
    8.1067   -8.1012   15.0415 He  0  0  0  0  0  0  0  0  0  0  0  0
    8.9774   -8.0241   16.3124 He  0  0  0  0  0  0  0  0  0  0  0  0
  1  2  4  0
  1 10  1  0
  1 13  3  0
  1 23  4  0
  2  6  2  0
  2 11  4  0
  2 13  2  0
  2 17  1  0
  2 26  3  0
  2 31  3  0
  3  8  4  0
  3 24  2  0
  3 26  4  0
  4  6  4  0
  4 15  4  0
  4 29  3  0
  4 32  4  0
  5  7  2  0
  5 10  2  0
  5 23  4  0
  5 27  3  0
  5 28  2  0
  6 10  4  0
  6 14  1  0
  6 22  4  0
  7 13  1  0
  7 20  1  0
  7 21  1  0
  7 24  1  0
  7 28  3  0
  8 20  1  0
  8 22  1  0
  8 32  4  0
  9 14  1  0
  9 27  1  0
  9 29  2  0
  9 30  1  0
 10 12  1  0
 11 15  3  0
 11 19  1  0
 11 20  4  0
 11 23  1  0
 11 25  4  0
 12 14  1  0
 12 28  1  0
 13 18  4  0
 13 26  4  0
 14 27  3  0
 15 19  2  0
 15 22  4  0
 16 29  4  0
 16 31  4  0
 17 23  1  0
 17 28  3  0
 17 29  2  0
 18 20  2  0
 18 32  4  0
 19 30  1  0
 20 21  4  0
 21 23  4  0
 22 27  1  0
 22 28  4  0
 24 30  1  0
 24 32  1  0
 25 28  4  0
 25 31  4  0
 25 32  4  0
 27 28  2  0
 27 29  4  0
 29 30  4  0
M  END
$$$$

 Created by Python create_sdf_string function

 34 38  0  0  0  0  0  0  0  0999 V2000
    9.9066   -1.9073   25.7381 C   0  0  0  0  0  0  0  0  0  0  0  0
   10.4178   -3.1568   25.9711 C   0  0  0  0  0  0  0  0  0  0  0  0
    9.7273   -6.0922   19.1573 C   0  0  0  0  0  0  0  0  0  0  0  0
    3.0782  -10.6335   18.5286 C   0  0  0  0  0  0  0  0  0  0  0  0
    8.2060   -5.0752   16.1137 O   0  0  0  0  0  0  0  0  0  0  0  0
    8.1899   -8.1488   14.9520 C   0  0  0  0  0  0  0  0  0  0  0  0
    2.8713  -11.6301   19.4672 N   0  0  0  0  0  0  0  0  0  0  0  0
   11.2386   -4.2521   22.5095 O   0  0  0  0  0  0  0  0  0  0  0  0
   10.4792   -5.5258   20.2235 C   0  0  0  0  0  0  0  0  0  0  0  0
    6.0044   -8.8646   17.1219 C   0  0  0  0  0  0  0  0  0  0  0  0
    8.4262   -5.8087   17.0899 C   0  0  0  0  0  0  0  0  0  0  0  0
   10.8788   -3.9529   24.8856 C   0  0  0  0  0  0  0  0  0  0  0  0
    7.9153   -7.1200   17.1418 N   0  0  0  0  0  0  0  0  0  0  0  0
    9.8235   -4.0134   18.0975 C   0  0  0  0  0  0  0  0  0  0  0  0
    6.5050   -7.5342   17.1709 C   0  0  0  0  0  0  0  0  0  0  0  0
    4.3297  -10.1486   18.2830 N   0  0  0  0  0  0  0  0  0  0  0  0
    2.2365   -9.1111   16.9249 C   0  0  0  0  0  0  0  0  0  0  0  0
   10.4434   -3.6316   27.3354 C   0  0  0  0  0  0  0  0  0  0  0  0
    8.7390   -8.0824   16.3642 C   0  0  0  0  0  0  0  0  0  0  0  0
   10.5581   -3.4437   19.1063 C   0  0  0  0  0  0  0  0  0  0  0  0
    6.9908   -8.9404   14.7676 C   0  0  0  0  0  0  0  0  0  0  0  0
   10.8265   -3.4439   23.6065 C   0  0  0  0  0  0  0  0  0  0  0  0
   10.3525   -2.1810   23.3568 C   0  0  0  0  0  0  0  0  0  0  0  0
    1.6257  -12.1481   19.5845 C   0  0  0  0  0  0  0  0  0  0  0  0
    9.8593   -1.4039   24.4315 C   0  0  0  0  0  0  0  0  0  0  0  0
   11.4949   -3.6522   21.2989 C   0  0  0  0  0  0  0  0  0  0  0  0
    0.7430  -10.7065   18.0639 C   0  0  0  0  0  0  0  0  0  0  0  0
    9.3677   -5.3063   18.1510 C   0  0  0  0  0  0  0  0  0  0  0  0
    4.6358   -9.2337   17.3881 C   0  0  0  0  0  0  0  0  0  0  0  0
    0.5755  -11.7217   18.9275 N   0  0  0  0  0  0  0  0  0  0  0  0
    3.5757   -8.7008   16.6923 C   0  0  0  0  0  0  0  0  0  0  0  0
    6.4086   -9.5947   15.8759 O   0  0  0  0  0  0  0  0  0  0  0  0
    1.9954  -10.1283   17.8327 C   0  0  0  0  0  0  0  0  0  0  0  0
   10.8199   -4.2213   20.1671 C   0  0  0  0  0  0  0  0  0  0  0  0
  1  2  4  0
  1 25  4  0
  2 12  4  0
  2 18  1  0
  3  9  4  0
  3 28  4  0
  4  7  4  0
  4 16  4  0
  4 33  4  0
  5 11  2  0
  6 19  1  0
  6 21  1  0
  7 24  4  0
  8 22  1  0
  8 26  1  0
  9 34  4  0
 10 15  1  0
 10 29  1  0
 10 32  1  0
 11 13  1  0
 11 28  1  0
 12 22  4  0
 13 15  1  0
 13 19  1  0
 14 20  4  0
 14 28  4  0
 16 29  4  0
 17 31  4  0
 17 33  4  0
 20 34  4  0
 21 32  1  0
 22 23  4  0
 23 25  4  0
 24 30  4  0
 26 34  1  0
 27 30  4  0
 27 33  4  0
 29 31  4  0
M  END
$$$$

 Created by Python create_sdf_string function

 34 70  0  0  0  0  0  0  0  0999 V2000
    9.8427   -2.2066   25.6713 C   0  0  0  0  0  0  0  0  0  0  0  0
   10.4659   -3.0123   26.0229 C   0  0  0  0  0  0  0  0  0  0  0  0
    9.9521   -5.8529   19.0857 C   0  0  0  0  0  0  0  0  0  0  0  0
    2.9900  -10.9336   18.7169 C   0  0  0  0  0  0  0  0  0  0  0  0
    8.5207   -4.9148   16.4821 O   0  0  0  0  0  0  0  0  0  0  0  0
    8.2408   -7.9093   15.0294 C   0  0  0  0  0  0  0  0  0  0  0  0
    2.8164  -11.4521   19.5824 N   0  0  0  0  0  0  0  0  0  0  0  0
   11.0394   -4.1584   22.5373 O   0  0  0  0  0  0  0  0  0  0  0  0
   10.1819   -5.3110   20.2834 C   0  0  0  0  0  0  0  0  0  0  0  0
    5.7341   -9.1058   17.1566 C   0  0  0  0  0  0  0  0  0  0  0  0
    8.3693   -5.8885   17.0250 C   0  0  0  0  0  0  0  0  0  0  0  0
   10.8561   -4.0434   24.8840 N   0  0  0  0  0  0  0  0  0  0  0  0
    8.0791   -7.2342   16.6550 N   0  0  0  0  0  0  0  0  0  0  0  0
    9.6830   -4.0365   17.9882 C   0  0  0  0  0  0  0  0  0  0  0  0
    6.4911   -7.5892   16.9774 C   0  0  0  0  0  0  0  0  0  0  0  0
    4.3117  -10.2688   18.6967 N   0  0  0  0  0  0  0  0  0  0  0  0
    2.2634   -9.3411   16.6086 C   0  0  0  0  0  0  0  0  0  0  0  0
   10.3123   -3.7664   27.3175 C   0  0  0  0  0  0  0  0  0  0  0  0
    8.8782   -8.1651   16.4436 C   0  0  0  0  0  0  0  0  0  0  0  0
   10.5284   -3.4749   19.0910 C   0  0  0  0  0  0  0  0  0  0  0  0
    6.9298   -8.9108   14.7789 C   0  0  0  0  0  0  0  0  0  0  0  0
   10.6743   -3.3130   23.6989 C   0  0  0  0  0  0  0  0  0  0  0  0
   10.3897   -2.0619   23.4000 C   0  0  0  0  0  0  0  0  0  0  0  0
    1.6420  -12.1422   19.7309 C   0  0  0  0  0  0  0  0  0  0  0  0
    9.8968   -1.4548   24.4324 C   0  0  0  0  0  0  0  0  0  0  0  0
   11.5055   -3.8194   21.3464 C   0  0  0  0  0  0  0  0  0  0  0  0
    9.2391   -5.0222   18.2525 C   0  0  0  0  0  0  0  0  0  0  0  0
    4.9118   -9.0938   17.4361 C   0  0  0  0  0  0  0  0  0  0  0  0
    0.3955  -11.8052   18.9831 N   0  0  0  0  0  0  0  0  0  0  0  0
    3.7103   -8.5281   16.5627 I   0  0  0  0  0  0  0  0  0  0  0  0
    6.3685   -9.3741   15.9136 Cl  0  0  0  0  0  0  0  0  0  0  0  0
    1.9081  -10.3514   17.9197 C   0  0  0  0  0  0  0  0  0  0  0  0
   10.8707   -4.0451   20.2153 C   0  0  0  0  0  0  0  0  0  0  0  0
    0.5218  -10.6283   18.0774 He  0  0  0  0  0  0  0  0  0  0  0  0
  1  2  4  0
  1  4  3  0
  1 24  4  0
  1 25  4  0
  1 26  3  0
  1 27  2  0
  2 12  3  0
  2 18  1  0
  3  4  1  0
  3  6  1  0
  3  9  4  0
  3 27  4  0
  3 28  2  0
  3 32  3  0
  4 16  4  0
  4 22  4  0
  4 32  4  0
  5 11  2  0
  5 32  1  0
  6  9  3  0
  6 19  1  0
  6 21  1  0
  6 25  3  0
  7 11  1  0
  7 16  2  0
  7 24  4  0
  7 27  1  0
  7 32  3  0
  8 15  1  0
  8 22  1  0
  8 26  1  0
  9 12  4  0
  9 33  4  0
 10 13  1  0
 10 16  4  0
 10 28  1  0
 10 31  1  0
 11 13  1  0
 11 16  3  0
 11 27  1  0
 12 14  1  0
 12 22  4  0
 12 32  1  0
 13 15  1  0
 13 19  1  0
 14 20  4  0
 14 27  4  0
 15 17  2  0
 15 24  1  0
 16 28  4  0
 16 29  3  0
 17 21  1  0
 17 24  3  0
 17 25  4  0
 17 30  4  0
 17 32  4  0
 19 29  4  0
 20 33  4  0
 21 31  1  0
 22 23  4  0
 23 25  4  0
 24 25  4  0
 24 29  4  0
 25 30  1  0
 25 31  2  0
 26 33  1  0
 27 30  4  0
 28 30  4  0
 29 30  3  0
 30 32  1  0
M  END
$$$$

 Created by Python create_sdf_string function

 34 38  0  0  0  0  0  0  0  0999 V2000
    9.8369   -1.9486   25.7824 C   0  0  0  0  0  0  0  0  0  0  0  0
   10.3352   -3.2251   25.9513 C   0  0  0  0  0  0  0  0  0  0  0  0
    9.6754   -6.0311   19.1917 C   0  0  0  0  0  0  0  0  0  0  0  0
    3.0621  -10.6764   18.5938 C   0  0  0  0  0  0  0  0  0  0  0  0
    8.2434   -5.0634   16.1076 O   0  0  0  0  0  0  0  0  0  0  0  0
    8.2189   -8.1394   14.9383 C   0  0  0  0  0  0  0  0  0  0  0  0
    2.8190  -11.6104   19.5728 N   0  0  0  0  0  0  0  0  0  0  0  0
   11.1064   -4.1657   22.5412 O   0  0  0  0  0  0  0  0  0  0  0  0
   10.4091   -5.4952   20.2472 C   0  0  0  0  0  0  0  0  0  0  0  0
    5.9942   -8.8645   17.1717 C   0  0  0  0  0  0  0  0  0  0  0  0
    8.4750   -5.7956   17.0361 C   0  0  0  0  0  0  0  0  0  0  0  0
   10.8089   -3.9372   24.8607 C   0  0  0  0  0  0  0  0  0  0  0  0
    7.9412   -7.0631   17.0616 N   0  0  0  0  0  0  0  0  0  0  0  0
    9.8710   -3.9681   18.0913 C   0  0  0  0  0  0  0  0  0  0  0  0
    6.5082   -7.4792   17.1399 C   0  0  0  0  0  0  0  0  0  0  0  0
    4.3224  -10.1691   18.3595 N   0  0  0  0  0  0  0  0  0  0  0  0
    2.2911   -9.2622   16.8167 C   0  0  0  0  0  0  0  0  0  0  0  0
   10.3922   -3.7765   27.2804 C   0  0  0  0  0  0  0  0  0  0  0  0
    8.7499   -8.1001   16.3915 C   0  0  0  0  0  0  0  0  0  0  0  0
   10.5550   -3.4179   19.1183 C   0  0  0  0  0  0  0  0  0  0  0  0
    6.9769   -8.9016   14.8014 C   0  0  0  0  0  0  0  0  0  0  0  0
   10.7654   -3.3890   23.6399 C   0  0  0  0  0  0  0  0  0  0  0  0
   10.3135   -2.1160   23.4107 C   0  0  0  0  0  0  0  0  0  0  0  0
    1.5633  -12.0772   19.7466 C   0  0  0  0  0  0  0  0  0  0  0  0
    9.8044   -1.3750   24.5097 C   0  0  0  0  0  0  0  0  0  0  0  0
   11.5022   -3.6502   21.3529 C   0  0  0  0  0  0  0  0  0  0  0  0
    0.7204  -10.7882   18.0103 C   0  0  0  0  0  0  0  0  0  0  0  0
    9.3826   -5.2656   18.1174 C   0  0  0  0  0  0  0  0  0  0  0  0
    4.6253   -9.2861   17.4215 C   0  0  0  0  0  0  0  0  0  0  0  0
    0.5155  -11.6690   18.9940 N   0  0  0  0  0  0  0  0  0  0  0  0
    3.6239   -8.8142   16.6543 C   0  0  0  0  0  0  0  0  0  0  0  0
    6.4140   -9.6075   15.8887 O   0  0  0  0  0  0  0  0  0  0  0  0
    2.0327  -10.2317   17.8099 C   0  0  0  0  0  0  0  0  0  0  0  0
   10.7944   -4.2055   20.2004 C   0  0  0  0  0  0  0  0  0  0  0  0
  1  2  4  0
  1 25  4  0
  2 12  4  0
  2 18  1  0
  3  9  4  0
  3 28  4  0
  4  7  4  0
  4 16  4  0
  4 33  4  0
  5 11  2  0
  6 19  1  0
  6 21  1  0
  7 24  4  0
  8 22  1  0
  8 26  1  0
  9 34  4  0
 10 15  1  0
 10 29  1  0
 10 32  1  0
 11 13  1  0
 11 28  1  0
 12 22  4  0
 13 15  1  0
 13 19  1  0
 14 20  4  0
 14 28  4  0
 16 29  4  0
 17 31  4  0
 17 33  4  0
 20 34  4  0
 21 32  1  0
 22 23  4  0
 23 25  4  0
 24 30  4  0
 26 34  1  0
 27 30  4  0
 27 33  4  0
 29 31  4  0
M  END
$$$$

 Created by Python create_sdf_string function

 34 47  0  0  0  0  0  0  0  0999 V2000
    9.9154   -1.9893   25.8424 C   0  0  0  0  0  0  0  0  0  0  0  0
   10.3283   -3.0883   25.9851 C   0  0  0  0  0  0  0  0  0  0  0  0
    9.5539   -6.0004   19.2581 C   0  0  0  0  0  0  0  0  0  0  0  0
    3.0769  -10.7666   18.3696 C   0  0  0  0  0  0  0  0  0  0  0  0
    8.2903   -5.1490   16.0464 O   0  0  0  0  0  0  0  0  0  0  0  0
    8.0350   -8.2921   15.0665 C   0  0  0  0  0  0  0  0  0  0  0  0
    2.6383  -11.6015   19.6225 N   0  0  0  0  0  0  0  0  0  0  0  0
   11.0235   -4.2469   22.7524 O   0  0  0  0  0  0  0  0  0  0  0  0
   10.3349   -5.5394   20.3542 C   0  0  0  0  0  0  0  0  0  0  0  0
    6.0377   -9.0036   17.3592 C   0  0  0  0  0  0  0  0  0  0  0  0
    8.3750   -5.8337   16.8750 C   0  0  0  0  0  0  0  0  0  0  0  0
    7.5737   -7.0608   17.1850 N   0  0  0  0  0  0  0  0  0  0  0  0
    9.8725   -3.9632   18.1269 C   0  0  0  0  0  0  0  0  0  0  0  0
    6.6471   -7.4713   17.1987 C   0  0  0  0  0  0  0  0  0  0  0  0
    2.7003   -9.0744   16.8224 C   0  0  0  0  0  0  0  0  0  0  0  0
   10.3020   -3.8635   27.4140 C   0  0  0  0  0  0  0  0  0  0  0  0
    8.9626   -8.2423   16.3929 C   0  0  0  0  0  0  0  0  0  0  0  0
   10.3666   -3.3544   18.9460 C   0  0  0  0  0  0  0  0  0  0  0  0
    6.9968   -8.7686   14.6754 C   0  0  0  0  0  0  0  0  0  0  0  0
   10.7408   -3.7192   23.6152 C   0  0  0  0  0  0  0  0  0  0  0  0
   10.3782   -2.1761   23.4456 C   0  0  0  0  0  0  0  0  0  0  0  0
    1.6249  -12.2053   19.8502 C   0  0  0  0  0  0  0  0  0  0  0  0
    9.7328   -1.2231   24.8049 C   0  0  0  0  0  0  0  0  0  0  0  0
   11.5044   -3.4075   21.3721 C   0  0  0  0  0  0  0  0  0  0  0  0
    0.6762  -10.6422   18.0967 C   0  0  0  0  0  0  0  0  0  0  0  0
    9.4742   -4.9953   18.0618 C   0  0  0  0  0  0  0  0  0  0  0  0
    4.5529   -9.1884   17.5367 C   0  0  0  0  0  0  0  0  0  0  0  0
    0.7212  -11.5692   18.7755 N   0  0  0  0  0  0  0  0  0  0  0  0
    3.6385   -9.0605   16.9179 C   0  0  0  0  0  0  0  0  0  0  0  0
    6.3819   -9.4911   15.7978 O   0  0  0  0  0  0  0  0  0  0  0  0
    2.0292   -9.8909   18.1562 C   0  0  0  0  0  0  0  0  0  0  0  0
   10.7337   -4.2442   20.3971 C   0  0  0  0  0  0  0  0  0  0  0  0
   10.9428   -3.7084   24.9319 He  0  0  0  0  0  0  0  0  0  0  0  0
    4.1859  -10.4161   18.2077 He  0  0  0  0  0  0  0  0  0  0  0  0
  1  2  4  0
  1 18  3  0
  1 23  4  0
  2 13  2  0
  2 16  1  0
  3  9  4  0
  3 16  4  0
  4  7  4  0
  4 11  2  0
  4 21  1  0
  4 26  4  0
  5 11  2  0
  5 15  4  0
  6 17  1  0
  6 19  1  0
  7 22  4  0
  7 26  1  0
  8 20  1  0
  8 24  1  0
  9 20  1  0
  9 32  3  0
 10 14  1  0
 10 27  2  0
 10 30  1  0
 11 12  1  0
 11 26  1  0
 12 14  1  0
 12 16  4  0
 12 17  1  0
 12 22  2  0
 12 27  1  0
 13 18  4  0
 13 23  4  0
 15 29  4  0
 15 31  4  0
 16 30  2  0
 18 32  4  0
 19 30  1  0
 20 21  4  0
 21 23  4  0
 22 28  4  0
 23 32  2  0
 24 26  1  0
 24 32  1  0
 25 28  4  0
 25 31  4  0
 27 29  4  0
M  END
$$$$

 Created by Python create_sdf_string function

 34 38  0  0  0  0  0  0  0  0999 V2000
    9.8553   -1.9203   25.9100 C   0  0  0  0  0  0  0  0  0  0  0  0
   10.3514   -3.2134   26.0610 C   0  0  0  0  0  0  0  0  0  0  0  0
    9.6434   -6.0636   19.1868 C   0  0  0  0  0  0  0  0  0  0  0  0
    3.0890  -10.7364   18.5766 C   0  0  0  0  0  0  0  0  0  0  0  0
    8.2625   -5.0912   16.0114 O   0  0  0  0  0  0  0  0  0  0  0  0
    8.2378   -8.2252   14.9740 C   0  0  0  0  0  0  0  0  0  0  0  0
    2.7915  -11.6982   19.5183 N   0  0  0  0  0  0  0  0  0  0  0  0
   11.0756   -4.1596   22.5884 O   0  0  0  0  0  0  0  0  0  0  0  0
   10.3232   -5.5005   20.2588 C   0  0  0  0  0  0  0  0  0  0  0  0
    6.0741   -8.9548   17.2113 C   0  0  0  0  0  0  0  0  0  0  0  0
    8.4628   -5.8047   17.0055 C   0  0  0  0  0  0  0  0  0  0  0  0
   10.7923   -3.9264   24.9537 C   0  0  0  0  0  0  0  0  0  0  0  0
    7.9348   -7.0996   17.1051 N   0  0  0  0  0  0  0  0  0  0  0  0
    9.8353   -4.0112   18.0696 C   0  0  0  0  0  0  0  0  0  0  0  0
    6.5344   -7.4935   17.2171 C   0  0  0  0  0  0  0  0  0  0  0  0
    4.3810  -10.3017   18.3347 N   0  0  0  0  0  0  0  0  0  0  0  0
    2.3540   -9.1475   16.9404 C   0  0  0  0  0  0  0  0  0  0  0  0
   10.3775   -3.7833   27.3782 C   0  0  0  0  0  0  0  0  0  0  0  0
    8.7321   -8.1737   16.4410 C   0  0  0  0  0  0  0  0  0  0  0  0
   10.5254   -3.4460   19.0871 C   0  0  0  0  0  0  0  0  0  0  0  0
    6.8767   -8.7700   14.7844 C   0  0  0  0  0  0  0  0  0  0  0  0
   10.7356   -3.3768   23.7194 C   0  0  0  0  0  0  0  0  0  0  0  0
   10.2537   -2.0861   23.5056 C   0  0  0  0  0  0  0  0  0  0  0  0
    1.5087  -12.0974   19.6754 C   0  0  0  0  0  0  0  0  0  0  0  0
    9.7841   -1.3395   24.6265 C   0  0  0  0  0  0  0  0  0  0  0  0
   11.3665   -3.5906   21.3928 C   0  0  0  0  0  0  0  0  0  0  0  0
    0.7409  -10.6336   18.0780 C   0  0  0  0  0  0  0  0  0  0  0  0
    9.3445   -5.2773   18.1136 C   0  0  0  0  0  0  0  0  0  0  0  0
    4.7036   -9.3475   17.4284 C   0  0  0  0  0  0  0  0  0  0  0  0
    0.5139  -11.5657   18.9882 N   0  0  0  0  0  0  0  0  0  0  0  0
    3.6569   -8.7547   16.7627 C   0  0  0  0  0  0  0  0  0  0  0  0
    6.3991   -9.5765   15.8797 O   0  0  0  0  0  0  0  0  0  0  0  0
    2.0691  -10.1753   17.8510 C   0  0  0  0  0  0  0  0  0  0  0  0
   10.7156   -4.1924   20.2166 C   0  0  0  0  0  0  0  0  0  0  0  0
  1  2  4  0
  1 25  4  0
  2 12  4  0
  2 18  1  0
  3  9  4  0
  3 28  4  0
  4  7  4  0
  4 16  4  0
  4 33  4  0
  5 11  2  0
  6 19  1  0
  6 21  1  0
  7 24  4  0
  8 22  1  0
  8 26  1  0
  9 34  4  0
 10 15  1  0
 10 29  1  0
 10 32  1  0
 11 13  1  0
 11 28  1  0
 12 22  4  0
 13 15  1  0
 13 19  1  0
 14 20  4  0
 14 28  4  0
 16 29  4  0
 17 31  4  0
 17 33  4  0
 20 34  4  0
 21 32  1  0
 22 23  4  0
 23 25  4  0
 24 30  4  0
 26 34  1  0
 27 30  4  0
 27 33  4  0
 29 31  4  0
M  END
$$$$

 Created by Python create_sdf_string function

 34 61  0  0  0  0  0  0  0  0999 V2000
    9.8770   -1.5702   25.7437 C   0  0  0  0  0  0  0  0  0  0  0  0
   10.2307   -3.2564   26.1157 C   0  0  0  0  0  0  0  0  0  0  0  0
    9.6142   -6.0602   19.1850 C   0  0  0  0  0  0  0  0  0  0  0  0
    3.2894  -10.7544   18.6012 C   0  0  0  0  0  0  0  0  0  0  0  0
    8.3079   -5.2715   16.0917 O   0  0  0  0  0  0  0  0  0  0  0  0
    8.2829   -8.3594   15.0530 C   0  0  0  0  0  0  0  0  0  0  0  0
    2.7811  -11.6690   19.6924 N   0  0  0  0  0  0  0  0  0  0  0  0
   11.0715   -4.3432   22.5183 O   0  0  0  0  0  0  0  0  0  0  0  0
   10.5387   -5.3851   20.1869 C   0  0  0  0  0  0  0  0  0  0  0  0
    6.0184   -8.8398   17.1316 C   0  0  0  0  0  0  0  0  0  0  0  0
    8.4647   -5.7772   17.1453 C   0  0  0  0  0  0  0  0  0  0  0  0
   11.1150   -4.0597   24.8666 C   0  0  0  0  0  0  0  0  0  0  0  0
    7.7718   -7.0041   17.0274 N   0  0  0  0  0  0  0  0  0  0  0  0
    9.8282   -3.8286   17.9308 C   0  0  0  0  0  0  0  0  0  0  0  0
    6.4830   -7.2693   17.4861 C   0  0  0  0  0  0  0  0  0  0  0  0
    4.6577  -10.4234   18.4375 N   0  0  0  0  0  0  0  0  0  0  0  0
    2.3309   -9.1405   16.7956 C   0  0  0  0  0  0  0  0  0  0  0  0
    8.8480   -8.1182   16.6167 C   0  0  0  0  0  0  0  0  0  0  0  0
    6.7476   -8.8387   14.9344 C   0  0  0  0  0  0  0  0  0  0  0  0
   10.5712   -3.5185   23.7305 C   0  0  0  0  0  0  0  0  0  0  0  0
   10.3600   -2.0909   23.3173 C   0  0  0  0  0  0  0  0  0  0  0  0
    1.5289  -12.0184   19.6134 C   0  0  0  0  0  0  0  0  0  0  0  0
    9.9347   -1.1982   24.5877 C   0  0  0  0  0  0  0  0  0  0  0  0
   11.3734   -3.5506   21.4231 C   0  0  0  0  0  0  0  0  0  0  0  0
    0.6591  -10.7482   18.1111 N   0  0  0  0  0  0  0  0  0  0  0  0
    9.2687   -5.3776   18.1569 C   0  0  0  0  0  0  0  0  0  0  0  0
    4.6314   -9.2175   17.4299 C   0  0  0  0  0  0  0  0  0  0  0  0
    0.3873  -11.4532   19.0809 N   0  0  0  0  0  0  0  0  0  0  0  0
    3.6311   -8.3632   16.8875 C   0  0  0  0  0  0  0  0  0  0  0  0
    6.3583   -9.5029   15.5312 O   0  0  0  0  0  0  0  0  0  0  0  0
    2.0793  -10.2479   17.7425 C   0  0  0  0  0  0  0  0  0  0  0  0
   10.7530   -4.1188   20.2446 C   0  0  0  0  0  0  0  0  0  0  0  0
   10.6286   -3.5190   27.4118 He  0  0  0  0  0  0  0  0  0  0  0  0
   10.3802   -3.3587   19.1945 He  0  0  0  0  0  0  0  0  0  0  0  0
  1  2  4  0
  1 23  4  0
  1 25  1  0
  1 30  2  0
  2 12  4  0
  3  4  2  0
  3  9  4  0
  3 26  4  0
  4  7  4  0
  4 13  3  0
  4 16  2  0
  4 31  4  0
  5 11  2  0
  5 12  4  0
  6 14  3  0
  6 19  1  0
  6 24  2  0
  6 30  2  0
  7 22  4  0
  8 20  1  0
  8 23  3  0
  8 24  1  0
  9 20  4  0
  9 26  3  0
  9 29  4  0
  9 32  4  0
 10 15  1  0
 10 27  1  0
 10 30  1  0
 10 32  4  0
 11 12  2  0
 11 13  1  0
 11 21  3  0
 11 22  4  0
 11 26  1  0
 12 20  4  0
 12 22  1  0
 13 15  1  0
 13 16  1  0
 13 18  1  0
 14 26  4  0
 14 28  2  0
 14 32  4  0
 15 21  4  0
 16 27  4  0
 17 19  2  0
 17 29  4  0
 17 31  4  0
 18 20  2  0
 19 30  1  0
 19 32  2  0
 20 21  4  0
 20 23  2  0
 20 32  4  0
 21 23  4  0
 22 28  4  0
 23 28  4  0
 24 32  1  0
 25 28  4  0
 25 31  4  0
 30 31  2  0
M  END
$$$$

 Created by Python create_sdf_string function

 34 38  0  0  0  0  0  0  0  0999 V2000
    9.9540   -1.8155   25.8442 C   0  0  0  0  0  0  0  0  0  0  0  0
   10.4322   -3.1009   26.0625 C   0  0  0  0  0  0  0  0  0  0  0  0
    9.7227   -6.0635   19.1527 C   0  0  0  0  0  0  0  0  0  0  0  0
    3.1289  -10.6932   18.5509 C   0  0  0  0  0  0  0  0  0  0  0  0
    8.2727   -5.1179   16.0349 O   0  0  0  0  0  0  0  0  0  0  0  0
    8.2837   -8.3585   15.0650 C   0  0  0  0  0  0  0  0  0  0  0  0
    2.8446  -11.6670   19.5111 N   0  0  0  0  0  0  0  0  0  0  0  0
   11.0398   -4.2033   22.5647 O   0  0  0  0  0  0  0  0  0  0  0  0
   10.4101   -5.4962   20.2328 C   0  0  0  0  0  0  0  0  0  0  0  0
    6.0656   -8.8845   17.1701 C   0  0  0  0  0  0  0  0  0  0  0  0
    8.4561   -5.8177   17.0376 C   0  0  0  0  0  0  0  0  0  0  0  0
   10.7861   -3.9002   24.9765 C   0  0  0  0  0  0  0  0  0  0  0  0
    7.9067   -7.0582   17.1296 N   0  0  0  0  0  0  0  0  0  0  0  0
    9.7654   -3.9845   18.0927 C   0  0  0  0  0  0  0  0  0  0  0  0
    6.5115   -7.4585   17.2981 C   0  0  0  0  0  0  0  0  0  0  0  0
    4.4310  -10.2377   18.2875 N   0  0  0  0  0  0  0  0  0  0  0  0
    2.3211   -9.1006   16.9160 C   0  0  0  0  0  0  0  0  0  0  0  0
   10.5301   -3.5796   27.3902 F   0  0  0  0  0  0  0  0  0  0  0  0
    8.7302   -8.1635   16.5363 C   0  0  0  0  0  0  0  0  0  0  0  0
   10.4846   -3.4010   19.1067 C   0  0  0  0  0  0  0  0  0  0  0  0
    6.8379   -8.6710   14.7792 C   0  0  0  0  0  0  0  0  0  0  0  0
   10.7259   -3.3927   23.6800 C   0  0  0  0  0  0  0  0  0  0  0  0
   10.2940   -2.0879   23.4351 C   0  0  0  0  0  0  0  0  0  0  0  0
    1.5649  -12.0120   19.7400 C   0  0  0  0  0  0  0  0  0  0  0  0
    9.8628   -1.2890   24.5288 C   0  0  0  0  0  0  0  0  0  0  0  0
   11.3625   -3.5992   21.3457 C   0  0  0  0  0  0  0  0  0  0  0  0
    0.7836  -10.6503   18.0574 N   0  0  0  0  0  0  0  0  0  0  0  0
    9.3386   -5.2827   18.1170 C   0  0  0  0  0  0  0  0  0  0  0  0
    4.7034   -9.2347   17.4479 C   0  0  0  0  0  0  0  0  0  0  0  0
    0.5292  -11.5473   19.0133 N   0  0  0  0  0  0  0  0  0  0  0  0
    3.6399   -8.6335   16.7932 C   0  0  0  0  0  0  0  0  0  0  0  0
    6.3206   -9.4888   15.8256 O   0  0  0  0  0  0  0  0  0  0  0  0
    2.0857  -10.1413   17.8371 C   0  0  0  0  0  0  0  0  0  0  0  0
   10.7280   -4.1797   20.1907 C   0  0  0  0  0  0  0  0  0  0  0  0
  1  2  4  0
  1 25  4  0
  2 12  4  0
  2 18  1  0
  3  9  4  0
  3 28  4  0
  4  7  4  0
  4 16  4  0
  4 33  4  0
  5 11  2  0
  6 19  1  0
  6 21  1  0
  7 24  4  0
  8 22  1  0
  8 26  1  0
  9 34  4  0
 10 15  1  0
 10 29  1  0
 10 32  1  0
 11 13  1  0
 11 28  1  0
 12 22  4  0
 13 15  1  0
 13 19  1  0
 14 20  4  0
 14 28  4  0
 16 29  4  0
 17 31  4  0
 17 33  4  0
 20 34  4  0
 21 32  1  0
 22 23  4  0
 23 25  4  0
 24 30  4  0
 26 34  1  0
 27 30  4  0
 27 33  4  0
 29 31  4  0
M  END
$$$$

 Created by Python create_sdf_string function

 34 53  0  0  0  0  0  0  0  0999 V2000
    9.7323   -1.7368   25.6998 C   0  0  0  0  0  0  0  0  0  0  0  0
   10.4708   -3.1563   26.3428 N   0  0  0  0  0  0  0  0  0  0  0  0
    9.6736   -6.2168   18.9467 C   0  0  0  0  0  0  0  0  0  0  0  0
    2.8841  -10.6570   18.3296 C   0  0  0  0  0  0  0  0  0  0  0  0
    8.4504   -5.1080   16.2784 O   0  0  0  0  0  0  0  0  0  0  0  0
    8.2943   -8.3831   14.9368 C   0  0  0  0  0  0  0  0  0  0  0  0
    2.8802  -11.6539   19.4840 N   0  0  0  0  0  0  0  0  0  0  0  0
   11.0326   -4.2010   22.4508 O   0  0  0  0  0  0  0  0  0  0  0  0
   10.3373   -5.4655   20.3412 C   0  0  0  0  0  0  0  0  0  0  0  0
    6.0811   -8.6695   16.8585 C   0  0  0  0  0  0  0  0  0  0  0  0
    8.4437   -5.7509   17.0894 C   0  0  0  0  0  0  0  0  0  0  0  0
   10.8808   -3.7580   25.0280 C   0  0  0  0  0  0  0  0  0  0  0  0
    9.7293   -3.9625   18.0599 C   0  0  0  0  0  0  0  0  0  0  0  0
    6.4602   -7.4546   17.5468 C   0  0  0  0  0  0  0  0  0  0  0  0
    4.4081  -10.3171   18.3999 N   0  0  0  0  0  0  0  0  0  0  0  0
    2.3914   -8.9460   17.0120 C   0  0  0  0  0  0  0  0  0  0  0  0
   10.6435   -3.7281   27.3078 F   0  0  0  0  0  0  0  0  0  0  0  0
    8.5992   -8.0903   16.6172 C   0  0  0  0  0  0  0  0  0  0  0  0
   10.3736   -3.5827   19.0700 C   0  0  0  0  0  0  0  0  0  0  0  0
    6.7636   -8.8159   14.6512 C   0  0  0  0  0  0  0  0  0  0  0  0
   10.0826   -2.1861   23.3638 C   0  0  0  0  0  0  0  0  0  0  0  0
    1.5575  -12.0059   19.7440 C   0  0  0  0  0  0  0  0  0  0  0  0
    9.6922   -1.3223   24.2937 C   0  0  0  0  0  0  0  0  0  0  0  0
   11.3634   -3.4805   21.3643 F   0  0  0  0  0  0  0  0  0  0  0  0
    0.8662  -10.3275   18.0274 N   0  0  0  0  0  0  0  0  0  0  0  0
    9.4186   -5.2378   18.2282 C   0  0  0  0  0  0  0  0  0  0  0  0
    4.6814   -9.1228   17.4153 C   0  0  0  0  0  0  0  0  0  0  0  0
    0.4147  -11.5495   19.2199 C   0  0  0  0  0  0  0  0  0  0  0  0
    3.7326   -8.9844   16.9567 C   0  0  0  0  0  0  0  0  0  0  0  0
    6.4306   -9.3752   15.7208 O   0  0  0  0  0  0  0  0  0  0  0  0
    2.1780  -10.5568   17.9318 C   0  0  0  0  0  0  0  0  0  0  0  0
   10.6296   -4.2697   20.0797 C   0  0  0  0  0  0  0  0  0  0  0  0
    8.0645   -7.2374   17.1335 He  0  0  0  0  0  0  0  0  0  0  0  0
   10.6110   -3.3859   23.6416 He  0  0  0  0  0  0  0  0  0  0  0  0
  1  2  4  0
  1  6  1  0
  1  8  1  0
  1 23  4  0
  2  9  1  0
  2 12  4  0
  2 17  1  0
  3  9  4  0
  3 26  4  0
  4  7  4  0
  4 15  4  0
  4 31  4  0
  5  7  1  0
  5 11  2  0
  5 22  1  0
  5 29  1  0
  6 18  1  0
  6 20  1  0
  6 24  1  0
  7 22  4  0
  7 29  1  0
  8 14  4  0
  8 24  1  0
  9 32  4  0
 10 14  1  0
 10 16  3  0
 10 27  1  0
 10 30  1  0
 10 32  3  0
 11 13  3  0
 11 22  3  0
 11 30  1  0
 13 19  4  0
 13 25  2  0
 14 21  4  0
 15 23  1  0
 15 27  4  0
 16 29  4  0
 16 31  3  0
 18 23  1  0
 19 32  4  0
 20 27  4  0
 20 30  1  0
 21 23  4  0
 22 28  2  0
 24 30  4  0
 24 32  1  0
 25 28  4  0
 25 31  4  0
 26 28  4  0
 26 29  1  0
 27 29  4  0
 27 32  2  0
M  END
$$$$

 Created by Python create_sdf_string function

 34 38  0  0  0  0  0  0  0  0999 V2000
    9.8149   -1.8452   25.8006 C   0  0  0  0  0  0  0  0  0  0  0  0
   10.4079   -3.0793   26.0324 C   0  0  0  0  0  0  0  0  0  0  0  0
    9.7335   -6.1082   19.1648 C   0  0  0  0  0  0  0  0  0  0  0  0
    3.1283  -10.6814   18.5378 C   0  0  0  0  0  0  0  0  0  0  0  0
    8.2391   -5.1528   16.0397 O   0  0  0  0  0  0  0  0  0  0  0  0
    8.2902   -8.3055   15.0048 C   0  0  0  0  0  0  0  0  0  0  0  0
    2.8890  -11.6882   19.4598 N   0  0  0  0  0  0  0  0  0  0  0  0
   11.0130   -4.1693   22.5732 O   0  0  0  0  0  0  0  0  0  0  0  0
   10.4161   -5.5352   20.2336 C   0  0  0  0  0  0  0  0  0  0  0  0
    6.0486   -8.8659   17.1504 C   0  0  0  0  0  0  0  0  0  0  0  0
    8.4664   -5.8676   17.0438 C   0  0  0  0  0  0  0  0  0  0  0  0
   10.8244   -3.8273   24.9468 C   0  0  0  0  0  0  0  0  0  0  0  0
    7.9270   -7.1171   17.1127 N   0  0  0  0  0  0  0  0  0  0  0  0
    9.7877   -4.0184   18.0654 C   0  0  0  0  0  0  0  0  0  0  0  0
    6.5389   -7.5304   17.3116 C   0  0  0  0  0  0  0  0  0  0  0  0
    4.4089  -10.2687   18.2543 N   0  0  0  0  0  0  0  0  0  0  0  0
    2.3275   -9.1555   16.9177 C   0  0  0  0  0  0  0  0  0  0  0  0
   10.5742   -3.5255   27.2616 F   0  0  0  0  0  0  0  0  0  0  0  0
    8.7100   -8.2394   16.4718 C   0  0  0  0  0  0  0  0  0  0  0  0
   10.4647   -3.4329   19.1004 C   0  0  0  0  0  0  0  0  0  0  0  0
    6.8574   -8.7313   14.7541 C   0  0  0  0  0  0  0  0  0  0  0  0
   10.6608   -3.3467   23.6582 C   0  0  0  0  0  0  0  0  0  0  0  0
   10.0763   -2.1061   23.4007 C   0  0  0  0  0  0  0  0  0  0  0  0
    1.6259  -12.0369   19.7679 C   0  0  0  0  0  0  0  0  0  0  0  0
    9.6149   -1.3382   24.4965 C   0  0  0  0  0  0  0  0  0  0  0  0
   11.3084   -3.6129   21.3520 C   0  0  0  0  0  0  0  0  0  0  0  0
    0.7803  -10.5445   18.1302 N   0  0  0  0  0  0  0  0  0  0  0  0
    9.3574   -5.3298   18.1124 C   0  0  0  0  0  0  0  0  0  0  0  0
    4.6851   -9.2575   17.4106 C   0  0  0  0  0  0  0  0  0  0  0  0
    0.5348  -11.4701   19.0900 C   0  0  0  0  0  0  0  0  0  0  0  0
    3.6282   -8.6937   16.7530 C   0  0  0  0  0  0  0  0  0  0  0  0
    6.3565   -9.4716   15.8325 O   0  0  0  0  0  0  0  0  0  0  0  0
    2.0587  -10.1277   17.8824 C   0  0  0  0  0  0  0  0  0  0  0  0
   10.6936   -4.2147   20.1825 C   0  0  0  0  0  0  0  0  0  0  0  0
  1  2  4  0
  1 25  4  0
  2 12  4  0
  2 18  1  0
  3  9  4  0
  3 28  4  0
  4  7  4  0
  4 16  4  0
  4 33  4  0
  5 11  2  0
  6 19  1  0
  6 21  1  0
  7 24  4  0
  8 22  1  0
  8 26  1  0
  9 34  4  0
 10 15  1  0
 10 29  1  0
 10 32  1  0
 11 13  1  0
 11 28  1  0
 12 22  4  0
 13 15  1  0
 13 19  1  0
 14 20  4  0
 14 28  4  0
 16 29  4  0
 17 31  4  0
 17 33  4  0
 20 34  4  0
 21 32  1  0
 22 23  4  0
 23 25  4  0
 24 30  4  0
 26 34  1  0
 27 30  4  0
 27 33  4  0
 29 31  4  0
M  END
$$$$

 Created by Python create_sdf_string function

 34 46  0  0  0  0  0  0  0  0999 V2000
   10.5099   -3.0812   26.0973 C   0  0  0  0  0  0  0  0  0  0  0  0
    9.7937   -6.1829   19.2889 C   0  0  0  0  0  0  0  0  0  0  0  0
    3.2267  -10.6612   18.5413 C   0  0  0  0  0  0  0  0  0  0  0  0
    8.1287   -5.1979   16.2828 O   0  0  0  0  0  0  0  0  0  0  0  0
    8.1149   -8.2187   14.9809 C   0  0  0  0  0  0  0  0  0  0  0  0
    2.8810  -11.5909   19.4922 N   0  0  0  0  0  0  0  0  0  0  0  0
   10.9614   -4.2014   22.4185 O   0  0  0  0  0  0  0  0  0  0  0  0
   10.4789   -5.5354   20.2014 C   0  0  0  0  0  0  0  0  0  0  0  0
    6.1429   -8.8102   17.1456 C   0  0  0  0  0  0  0  0  0  0  0  0
    8.4786   -5.8175   16.9595 C   0  0  0  0  0  0  0  0  0  0  0  0
   10.7702   -3.7953   24.7648 C   0  0  0  0  0  0  0  0  0  0  0  0
    8.0740   -7.1543   17.1098 N   0  0  0  0  0  0  0  0  0  0  0  0
    9.8234   -4.1276   17.9346 C   0  0  0  0  0  0  0  0  0  0  0  0
    6.6594   -7.7102   17.2523 C   0  0  0  0  0  0  0  0  0  0  0  0
    4.4348  -10.3954   18.4059 N   0  0  0  0  0  0  0  0  0  0  0  0
    2.1248   -8.9274   16.8747 C   0  0  0  0  0  0  0  0  0  0  0  0
    9.0585   -8.5021   16.4756 C   0  0  0  0  0  0  0  0  0  0  0  0
   10.4339   -3.3681   19.1439 C   0  0  0  0  0  0  0  0  0  0  0  0
    6.9213   -8.7590   14.7400 C   0  0  0  0  0  0  0  0  0  0  0  0
   10.8338   -3.3354   23.6715 C   0  0  0  0  0  0  0  0  0  0  0  0
   10.0538   -2.1455   23.3619 C   0  0  0  0  0  0  0  0  0  0  0  0
    1.4724  -12.0781   19.7696 C   0  0  0  0  0  0  0  0  0  0  0  0
    9.6530   -1.2420   24.3106 C   0  0  0  0  0  0  0  0  0  0  0  0
   11.2484   -3.6326   21.3524 C   0  0  0  0  0  0  0  0  0  0  0  0
    0.7494  -10.5988   17.9785 N   0  0  0  0  0  0  0  0  0  0  0  0
    4.7992   -9.3164   17.3451 Se  0  0  0  0  0  0  0  0  0  0  0  0
    0.3820  -11.8547   19.0951 C   0  0  0  0  0  0  0  0  0  0  0  0
    3.3584   -8.7040   16.8490 C   0  0  0  0  0  0  0  0  0  0  0  0
    6.2021   -9.3847   15.7386 O   0  0  0  0  0  0  0  0  0  0  0  0
    2.1220  -10.3841   17.9693 C   0  0  0  0  0  0  0  0  0  0  0  0
   10.5024   -4.1886   20.3568 C   0  0  0  0  0  0  0  0  0  0  0  0
    9.8529   -1.7741   25.7754 He  0  0  0  0  0  0  0  0  0  0  0  0
   10.4852   -3.5707   27.2930 He  0  0  0  0  0  0  0  0  0  0  0  0
    9.4359   -5.2479   18.1863 He  0  0  0  0  0  0  0  0  0  0  0  0
  1 11  4  0
  1 23  2  0
  2  8  4  0
  2 27  3  0
  3  6  4  0
  3 15  4  0
  3 25  4  0
  3 30  4  0
  4 10  2  0
  4 23  3  0
  5 17  1  0
  5 19  1  0
  6 11  2  0
  6 22  4  0
  6 27  3  0
  7 15  4  0
  7 20  1  0
  7 24  1  0
  8 31  4  0
  9 14  1  0
  9 26  1  0
  9 29  1  0
 10 12  3  0
 10 23  1  0
 11 20  4  0
 12 14  4  0
 13 18  4  0
 13 28  4  0
 14 16  2  0
 15 26  4  0
 16 26  3  0
 16 28  4  0
 16 30  4  0
 17 23  2  0
 18 31  4  0
 19 29  1  0
 20 21  4  0
 20 25  2  0
 20 29  3  0
 21 23  4  0
 22 27  4  0
 24 26  2  0
 24 31  1  0
 25 27  4  0
 25 30  4  0
 27 28  4  0
M  END
$$$$

 Created by Python create_sdf_string function

 34 38  0  0  0  0  0  0  0  0999 V2000
    9.8398   -1.8055   25.7724 C   0  0  0  0  0  0  0  0  0  0  0  0
   10.3960   -3.0482   25.9696 C   0  0  0  0  0  0  0  0  0  0  0  0
    9.7747   -6.1526   19.1744 C   0  0  0  0  0  0  0  0  0  0  0  0
    3.0968  -10.7035   18.5476 C   0  0  0  0  0  0  0  0  0  0  0  0
    8.1245   -5.1581   16.1565 O   0  0  0  0  0  0  0  0  0  0  0  0
    8.2643   -8.2506   14.9547 C   0  0  0  0  0  0  0  0  0  0  0  0
    2.8736  -11.6729   19.5188 N   0  0  0  0  0  0  0  0  0  0  0  0
   11.0142   -4.1077   22.5319 O   0  0  0  0  0  0  0  0  0  0  0  0
   10.4086   -5.5371   20.2569 C   0  0  0  0  0  0  0  0  0  0  0  0
    6.0090   -8.9241   17.1618 C   0  0  0  0  0  0  0  0  0  0  0  0
    8.4732   -5.9140   17.0845 C   0  0  0  0  0  0  0  0  0  0  0  0
   10.8087   -3.8131   24.8871 C   0  0  0  0  0  0  0  0  0  0  0  0
    8.0117   -7.2283   17.1306 N   0  0  0  0  0  0  0  0  0  0  0  0
    9.7965   -4.0795   18.0654 C   0  0  0  0  0  0  0  0  0  0  0  0
    6.5805   -7.6061   17.3013 C   0  0  0  0  0  0  0  0  0  0  0  0
    4.3764  -10.2743   18.2722 N   0  0  0  0  0  0  0  0  0  0  0  0
    2.2740   -9.1416   16.9709 C   0  0  0  0  0  0  0  0  0  0  0  0
   10.5262   -3.5086   27.2703 F   0  0  0  0  0  0  0  0  0  0  0  0
    8.7592   -8.2877   16.4291 C   0  0  0  0  0  0  0  0  0  0  0  0
   10.4390   -3.4708   19.0802 C   0  0  0  0  0  0  0  0  0  0  0  0
    6.9040   -8.7484   14.7654 C   0  0  0  0  0  0  0  0  0  0  0  0
   10.6452   -3.3110   23.6220 C   0  0  0  0  0  0  0  0  0  0  0  0
   10.0954   -2.0560   23.3812 C   0  0  0  0  0  0  0  0  0  0  0  0
    1.6250  -12.1258   19.7584 C   0  0  0  0  0  0  0  0  0  0  0  0
    9.6604   -1.2811   24.4652 C   0  0  0  0  0  0  0  0  0  0  0  0
   11.2992   -3.5678   21.3166 C   0  0  0  0  0  0  0  0  0  0  0  0
    0.7449  -10.7076   18.0747 N   0  0  0  0  0  0  0  0  0  0  0  0
    9.3892   -5.3881   18.1166 C   0  0  0  0  0  0  0  0  0  0  0  0
    4.6367   -9.3061   17.4187 C   0  0  0  0  0  0  0  0  0  0  0  0
    0.5267  -11.6725   19.0202 C   0  0  0  0  0  0  0  0  0  0  0  0
    3.5823   -8.7047   16.7671 C   0  0  0  0  0  0  0  0  0  0  0  0
    6.2335   -9.4392   15.7643 O   0  0  0  0  0  0  0  0  0  0  0  0
    2.0202  -10.1943   17.8768 C   0  0  0  0  0  0  0  0  0  0  0  0
   10.6974   -4.2099   20.1870 C   0  0  0  0  0  0  0  0  0  0  0  0
  1  2  4  0
  1 25  4  0
  2 12  4  0
  2 18  1  0
  3  9  4  0
  3 28  4  0
  4  7  4  0
  4 16  4  0
  4 33  4  0
  5 11  2  0
  6 19  1  0
  6 21  1  0
  7 24  4  0
  8 22  1  0
  8 26  1  0
  9 34  4  0
 10 15  1  0
 10 29  1  0
 10 32  1  0
 11 13  1  0
 11 28  1  0
 12 22  4  0
 13 15  1  0
 13 19  1  0
 14 20  4  0
 14 28  4  0
 16 29  4  0
 17 31  4  0
 17 33  4  0
 20 34  4  0
 21 32  1  0
 22 23  4  0
 23 25  4  0
 24 30  4  0
 26 34  1  0
 27 30  4  0
 27 33  4  0
 29 31  4  0
M  END
$$$$

 Created by Python create_sdf_string function

 34 50  0  0  0  0  0  0  0  0999 V2000
    9.7830   -1.6009   25.7301 C   0  0  0  0  0  0  0  0  0  0  0  0
   10.3357   -3.1160   25.9555 C   0  0  0  0  0  0  0  0  0  0  0  0
    9.8536   -6.3660   19.2272 S   0  0  0  0  0  0  0  0  0  0  0  0
    3.1046  -10.7871   18.5796 C   0  0  0  0  0  0  0  0  0  0  0  0
    8.0431   -5.0767   16.3273 O   0  0  0  0  0  0  0  0  0  0  0  0
    8.3140   -8.3499   15.0573 C   0  0  0  0  0  0  0  0  0  0  0  0
    2.9194  -11.6241   19.5283 N   0  0  0  0  0  0  0  0  0  0  0  0
   10.9704   -4.0937   22.4846 O   0  0  0  0  0  0  0  0  0  0  0  0
   10.4840   -5.5657   20.2737 C   0  0  0  0  0  0  0  0  0  0  0  0
    5.8077   -8.8973   17.3777 C   0  0  0  0  0  0  0  0  0  0  0  0
    8.5066   -5.8282   17.0258 C   0  0  0  0  0  0  0  0  0  0  0  0
   10.7832   -3.9328   24.9132 C   0  0  0  0  0  0  0  0  0  0  0  0
    9.7462   -4.1575   18.1257 C   0  0  0  0  0  0  0  0  0  0  0  0
    6.5701   -7.8250   17.1104 C   0  0  0  0  0  0  0  0  0  0  0  0
    4.5540  -10.2431   18.2609 N   0  0  0  0  0  0  0  0  0  0  0  0
    2.0676   -9.2251   16.7698 C   0  0  0  0  0  0  0  0  0  0  0  0
   10.5636   -3.4840   27.2764 F   0  0  0  0  0  0  0  0  0  0  0  0
    8.6811   -8.2782   16.3622 C   0  0  0  0  0  0  0  0  0  0  0  0
   10.4691   -3.5485   19.0609 C   0  0  0  0  0  0  0  0  0  0  0  0
    6.9805   -8.7648   14.6320 C   0  0  0  0  0  0  0  0  0  0  0  0
   10.4929   -3.4044   23.6985 C   0  0  0  0  0  0  0  0  0  0  0  0
   10.1634   -2.0656   23.4364 C   0  0  0  0  0  0  0  0  0  0  0  0
    1.6002  -12.0829   20.0372 C   0  0  0  0  0  0  0  0  0  0  0  0
    9.6653   -1.1990   24.6046 C   0  0  0  0  0  0  0  0  0  0  0  0
   11.2690   -3.3902   21.1913 C   0  0  0  0  0  0  0  0  0  0  0  0
    0.8966  -10.6415   17.9165 N   0  0  0  0  0  0  0  0  0  0  0  0
    9.5861   -5.4892   18.1086 C   0  0  0  0  0  0  0  0  0  0  0  0
    4.7049   -9.3040   17.4932 C   0  0  0  0  0  0  0  0  0  0  0  0
    0.2295  -11.7529   18.9183 C   0  0  0  0  0  0  0  0  0  0  0  0
    3.5647   -8.6999   16.9968 C   0  0  0  0  0  0  0  0  0  0  0  0
    5.9939   -9.1435   15.7195 O   0  0  0  0  0  0  0  0  0  0  0  0
    1.8994  -10.0927   17.9467 C   0  0  0  0  0  0  0  0  0  0  0  0
   10.7205   -4.1618   20.2445 C   0  0  0  0  0  0  0  0  0  0  0  0
    8.3961   -7.2759   16.9949 He  0  0  0  0  0  0  0  0  0  0  0  0
  1  2  4  0
  1 24  4  0
  1 28  3  0
  2 12  4  0
  2 14  1  0
  2 17  1  0
  2 33  2  0
  3  9  2  0
  3 18  2  0
  3 27  4  0
  4  6  1  0
  4  7  4  0
  4 15  4  0
  4 17  4  0
  4 29  1  0
  4 32  4  0
  5 11  2  0
  6 18  1  0
  6 19  3  0
  6 20  1  0
  7  8  2  0
  7 23  4  0
  7 24  4  0
  8 25  1  0
  9 33  4  0
 10 14  1  0
 10 24  3  0
 10 28  1  0
 10 31  1  0
 11 27  1  0
 12 21  4  0
 13 19  4  0
 13 27  4  0
 16 22  2  0
 16 30  4  0
 16 32  4  0
 17 23  2  0
 19 20  1  0
 19 33  4  0
 20 23  4  0
 20 31  1  0
 21 22  4  0
 22 23  3  0
 22 24  4  0
 22 33  4  0
 23 29  4  0
 25 33  1  0
 26 29  4  0
 26 32  4  0
 28 30  4  0
M  END
$$$$

 Created by Python create_sdf_string function

 34 38  0  0  0  0  0  0  0  0999 V2000
    9.8301   -1.7743   25.8317 C   0  0  0  0  0  0  0  0  0  0  0  0
   10.3461   -3.0397   26.0026 C   0  0  0  0  0  0  0  0  0  0  0  0
    9.8429   -6.2283   19.1438 C   0  0  0  0  0  0  0  0  0  0  0  0
    3.0954  -10.7041   18.5728 C   0  0  0  0  0  0  0  0  0  0  0  0
    8.0661   -5.1361   16.2343 O   0  0  0  0  0  0  0  0  0  0  0  0
    8.3328   -8.3383   14.9477 C   0  0  0  0  0  0  0  0  0  0  0  0
    2.8491  -11.6315   19.5836 N   0  0  0  0  0  0  0  0  0  0  0  0
   10.9379   -4.0617   22.5355 O   0  0  0  0  0  0  0  0  0  0  0  0
   10.4959   -5.5697   20.2603 C   0  0  0  0  0  0  0  0  0  0  0  0
    5.9789   -8.9091   17.1577 C   0  0  0  0  0  0  0  0  0  0  0  0
    8.4849   -5.9422   17.0788 C   0  0  0  0  0  0  0  0  0  0  0  0
   10.7001   -3.8191   24.9135 C   0  0  0  0  0  0  0  0  0  0  0  0
    8.0662   -7.2395   17.0672 N   0  0  0  0  0  0  0  0  0  0  0  0
    9.8119   -4.1320   18.0468 C   0  0  0  0  0  0  0  0  0  0  0  0
    6.6641   -7.5986   17.2921 C   0  0  0  0  0  0  0  0  0  0  0  0
    4.3598  -10.2469   18.3280 N   0  0  0  0  0  0  0  0  0  0  0  0
    2.2531   -9.1684   16.9455 C   0  0  0  0  0  0  0  0  0  0  0  0
   10.5184   -3.4996   27.2511 F   0  0  0  0  0  0  0  0  0  0  0  0
    8.7910   -8.3243   16.4046 C   0  0  0  0  0  0  0  0  0  0  0  0
   10.4473   -3.5124   19.0532 C   0  0  0  0  0  0  0  0  0  0  0  0
    6.9252   -8.7809   14.7871 C   0  0  0  0  0  0  0  0  0  0  0  0
   10.5852   -3.2771   23.6448 C   0  0  0  0  0  0  0  0  0  0  0  0
   10.0840   -2.0107   23.4357 C   0  0  0  0  0  0  0  0  0  0  0  0
    1.5998  -12.0822   19.8076 C   0  0  0  0  0  0  0  0  0  0  0  0
    9.6806   -1.2354   24.5302 C   0  0  0  0  0  0  0  0  0  0  0  0
   11.2445   -3.5035   21.3209 C   0  0  0  0  0  0  0  0  0  0  0  0
    0.7507  -10.7317   18.0383 N   0  0  0  0  0  0  0  0  0  0  0  0
    9.4110   -5.4424   18.1124 C   0  0  0  0  0  0  0  0  0  0  0  0
    4.5967   -9.3095   17.4359 C   0  0  0  0  0  0  0  0  0  0  0  0
    0.5086  -11.6554   19.0170 C   0  0  0  0  0  0  0  0  0  0  0  0
    3.5596   -8.7298   16.7808 C   0  0  0  0  0  0  0  0  0  0  0  0
    6.1093   -9.2629   15.7024 O   0  0  0  0  0  0  0  0  0  0  0  0
    2.0170  -10.2251   17.8387 C   0  0  0  0  0  0  0  0  0  0  0  0
   10.7124   -4.2202   20.1761 C   0  0  0  0  0  0  0  0  0  0  0  0
  1  2  4  0
  1 25  4  0
  2 12  4  0
  2 18  1  0
  3  9  4  0
  3 28  4  0
  4  7  4  0
  4 16  4  0
  4 33  4  0
  5 11  2  0
  6 19  1  0
  6 21  1  0
  7 24  4  0
  8 22  1  0
  8 26  1  0
  9 34  4  0
 10 15  1  0
 10 29  1  0
 10 32  1  0
 11 13  1  0
 11 28  1  0
 12 22  4  0
 13 15  1  0
 13 19  1  0
 14 20  4  0
 14 28  4  0
 16 29  4  0
 17 31  4  0
 17 33  4  0
 20 34  4  0
 21 32  1  0
 22 23  4  0
 23 25  4  0
 24 30  4  0
 26 34  1  0
 27 30  4  0
 27 33  4  0
 29 31  4  0
M  END
$$$$

 Created by Python create_sdf_string function

 34 67  0  0  0  0  0  0  0  0999 V2000
    9.8080   -1.7020   25.6777 C   0  0  0  0  0  0  0  0  0  0  0  0
   10.2479   -3.0571   26.0051 C   0  0  0  0  0  0  0  0  0  0  0  0
    9.9559   -6.2800   19.1986 C   0  0  0  0  0  0  0  0  0  0  0  0
    3.1109  -10.7478   18.5671 C   0  0  0  0  0  0  0  0  0  0  0  0
    8.0032   -5.1692   16.1874 O   0  0  0  0  0  0  0  0  0  0  0  0
    8.2781   -8.1841   15.0423 C   0  0  0  0  0  0  0  0  0  0  0  0
    2.8002  -11.5940   19.5666 N   0  0  0  0  0  0  0  0  0  0  0  0
   10.8762   -4.1432   22.4855 O   0  0  0  0  0  0  0  0  0  0  0  0
   10.5016   -5.6058   20.3536 C   0  0  0  0  0  0  0  0  0  0  0  0
    6.0427   -8.9185   17.2202 C   0  0  0  0  0  0  0  0  0  0  0  0
    8.6606   -5.9218   17.1523 C   0  0  0  0  0  0  0  0  0  0  0  0
   10.5925   -3.7214   24.7669 C   0  0  0  0  0  0  0  0  0  0  0  0
    8.1688   -7.5112   16.9995 N   0  0  0  0  0  0  0  0  0  0  0  0
    9.8118   -4.1367   18.0931 C   0  0  0  0  0  0  0  0  0  0  0  0
    6.7123   -7.6236   17.2841 C   0  0  0  0  0  0  0  0  0  0  0  0
    4.4846  -10.2344   18.3290 N   0  0  0  0  0  0  0  0  0  0  0  0
    2.1671   -8.9794   16.9984 C   0  0  0  0  0  0  0  0  0  0  0  0
   10.4097   -3.4490   27.1971 F   0  0  0  0  0  0  0  0  0  0  0  0
    8.9388   -8.1961   16.4436 C   0  0  0  0  0  0  0  0  0  0  0  0
   10.3089   -3.5138   19.0181 C   0  0  0  0  0  0  0  0  0  0  0  0
    6.8293   -8.8515   14.7734 C   0  0  0  0  0  0  0  0  0  0  0  0
   10.5897   -3.2387   23.5659 C   0  0  0  0  0  0  0  0  0  0  0  0
   10.1246   -2.0614   23.4099 C   0  0  0  0  0  0  0  0  0  0  0  0
    1.5942  -11.8837   19.6431 C   0  0  0  0  0  0  0  0  0  0  0  0
   11.3511   -3.5495   21.4028 C   0  0  0  0  0  0  0  0  0  0  0  0
    0.6850  -10.6428   18.1279 N   0  0  0  0  0  0  0  0  0  0  0  0
    9.3242   -5.2489   18.1765 C   0  0  0  0  0  0  0  0  0  0  0  0
    4.6409   -9.3562   17.4777 C   0  0  0  0  0  0  0  0  0  0  0  0
    0.3942  -11.5732   18.9950 C   0  0  0  0  0  0  0  0  0  0  0  0
    3.4104   -8.7764   16.6548 C   0  0  0  0  0  0  0  0  0  0  0  0
    6.0339   -9.0447   15.5918 O   0  0  0  0  0  0  0  0  0  0  0  0
    2.2861  -10.2554   17.8759 Cl  0  0  0  0  0  0  0  0  0  0  0  0
   10.7651   -4.1199   20.1688 C   0  0  0  0  0  0  0  0  0  0  0  0
    9.5676   -1.2453   24.4722 He  0  0  0  0  0  0  0  0  0  0  0  0
  1  2  4  0
  1  5  3  0
  1  6  3  0
  1 27  1  0
  1 29  2  0
  1 32  2  0
  2  7  4  0
  2 12  4  0
  2 18  1  0
  3  9  4  0
  3 11  4  0
  3 21  4  0
  3 27  4  0
  4  7  4  0
  4 16  4  0
  4 21  2  0
  4 32  4  0
  4 33  4  0
  5  6  2  0
  5 11  2  0
  5 24  4  0
  6 18  3  0
  6 19  1  0
  6 21  1  0
  6 24  2  0
  7  8  1  0
  7 19  1  0
  7 24  4  0
  8 22  1  0
  8 25  1  0
  9 33  4  0
 10 15  1  0
 10 28  1  0
 10 31  1  0
 11 13  1  0
 11 27  1  0
 12 15  3  0
 12 19  2  0
 12 22  4  0
 13 15  1  0
 13 19  1  0
 14 20  4  0
 14 27  4  0
 15 16  3  0
 15 20  4  0
 15 22  3  0
 15 26  1  0
 15 27  3  0
 16 28  4  0
 16 29  1  0
 17 23  2  0
 17 24  4  0
 17 29  1  0
 17 30  4  0
 17 32  4  0
 18 21  2  0
 19 28  4  0
 20 33  4  0
 21 25  1  0
 21 31  1  0
 22 23  4  0
 22 33  1  0
 24 29  4  0
 25 33  1  0
 26 29  4  0
 26 32  4  0
 28 30  4  0
M  END
$$$$

 Created by Python create_sdf_string function

 34 38  0  0  0  0  0  0  0  0999 V2000
    9.7426   -1.7311   25.7491 C   0  0  0  0  0  0  0  0  0  0  0  0
   10.2519   -2.9922   25.9294 C   0  0  0  0  0  0  0  0  0  0  0  0
    9.8547   -6.1733   19.1755 C   0  0  0  0  0  0  0  0  0  0  0  0
    3.0929  -10.6720   18.5737 C   0  0  0  0  0  0  0  0  0  0  0  0
    8.0762   -5.1957   16.2052 O   0  0  0  0  0  0  0  0  0  0  0  0
    8.2796   -8.2036   14.9460 C   0  0  0  0  0  0  0  0  0  0  0  0
    2.8484  -11.6326   19.5167 N   0  0  0  0  0  0  0  0  0  0  0  0
   10.8869   -4.0300   22.5375 O   0  0  0  0  0  0  0  0  0  0  0  0
   10.5066   -5.5661   20.2453 C   0  0  0  0  0  0  0  0  0  0  0  0
    5.9912   -8.9317   17.0926 C   0  0  0  0  0  0  0  0  0  0  0  0
    8.4781   -5.9598   17.0968 C   0  0  0  0  0  0  0  0  0  0  0  0
   10.6346   -3.7664   24.8488 C   0  0  0  0  0  0  0  0  0  0  0  0
    8.0540   -7.2850   17.1536 N   0  0  0  0  0  0  0  0  0  0  0  0
    9.7744   -4.1005   18.0825 C   0  0  0  0  0  0  0  0  0  0  0  0
    6.6753   -7.6400   17.3212 C   0  0  0  0  0  0  0  0  0  0  0  0
    4.3677  -10.2478   18.2937 N   0  0  0  0  0  0  0  0  0  0  0  0
    2.2628   -9.1401   16.9323 C   0  0  0  0  0  0  0  0  0  0  0  0
   10.3792   -3.4497   27.1648 F   0  0  0  0  0  0  0  0  0  0  0  0
    8.8328   -8.2530   16.3723 C   0  0  0  0  0  0  0  0  0  0  0  0
   10.4324   -3.4951   19.0888 C   0  0  0  0  0  0  0  0  0  0  0  0
    6.9744   -8.8576   14.8152 C   0  0  0  0  0  0  0  0  0  0  0  0
   10.5335   -3.2313   23.6000 C   0  0  0  0  0  0  0  0  0  0  0  0
   10.0517   -1.9657   23.3817 C   0  0  0  0  0  0  0  0  0  0  0  0
    1.5987  -12.0354   19.7494 C   0  0  0  0  0  0  0  0  0  0  0  0
    9.6312   -1.2004   24.4705 C   0  0  0  0  0  0  0  0  0  0  0  0
   11.3432   -3.5624   21.3486 C   0  0  0  0  0  0  0  0  0  0  0  0
    0.7577  -10.6108   18.0896 N   0  0  0  0  0  0  0  0  0  0  0  0
    9.4108   -5.4198   18.1204 C   0  0  0  0  0  0  0  0  0  0  0  0
    4.6073   -9.3232   17.3999 C   0  0  0  0  0  0  0  0  0  0  0  0
    0.5209  -11.5510   19.0238 C   0  0  0  0  0  0  0  0  0  0  0  0
    3.5679   -8.7388   16.7311 C   0  0  0  0  0  0  0  0  0  0  0  0
    6.0651   -9.1486   15.6028 O   0  0  0  0  0  0  0  0  0  0  0  0
    2.0303  -10.1422   17.8814 C   0  0  0  0  0  0  0  0  0  0  0  0
   10.7425   -4.2246   20.1868 C   0  0  0  0  0  0  0  0  0  0  0  0
  1  2  4  0
  1 25  4  0
  2 12  4  0
  2 18  1  0
  3  9  4  0
  3 28  4  0
  4  7  4  0
  4 16  4  0
  4 33  4  0
  5 11  2  0
  6 19  1  0
  6 21  1  0
  7 24  4  0
  8 22  1  0
  8 26  1  0
  9 34  4  0
 10 15  1  0
 10 29  1  0
 10 32  1  0
 11 13  1  0
 11 28  1  0
 12 22  4  0
 13 15  1  0
 13 19  1  0
 14 20  4  0
 14 28  4  0
 16 29  4  0
 17 31  4  0
 17 33  4  0
 20 34  4  0
 21 32  1  0
 22 23  4  0
 23 25  4  0
 24 30  4  0
 26 34  1  0
 27 30  4  0
 27 33  4  0
 29 31  4  0
M  END
$$$$

 Created by Python create_sdf_string function

 34 46  0  0  0  0  0  0  0  0999 V2000
   10.2030   -2.8920   26.0672 C   0  0  0  0  0  0  0  0  0  0  0  0
    9.9469   -6.2733   19.4054 C   0  0  0  0  0  0  0  0  0  0  0  0
    2.9812  -10.7262   18.5374 C   0  0  0  0  0  0  0  0  0  0  0  0
    7.9766   -5.2732   16.1025 N   0  0  0  0  0  0  0  0  0  0  0  0
    8.2005   -8.1675   14.8356 C   0  0  0  0  0  0  0  0  0  0  0  0
    2.8377  -11.5658   19.4358 N   0  0  0  0  0  0  0  0  0  0  0  0
   10.5570   -5.5699   20.1511 C   0  0  0  0  0  0  0  0  0  0  0  0
    6.1004   -8.7417   17.0681 C   0  0  0  0  0  0  0  0  0  0  0  0
    8.4897   -6.0778   17.0731 C   0  0  0  0  0  0  0  0  0  0  0  0
    8.1320   -7.1226   17.2124 N   0  0  0  0  0  0  0  0  0  0  0  0
    9.7243   -4.1546   18.0885 C   0  0  0  0  0  0  0  0  0  0  0  0
    6.5898   -7.5546   17.3975 C   0  0  0  0  0  0  0  0  0  0  0  0
    4.2938  -10.4151   18.1781 N   0  0  0  0  0  0  0  0  0  0  0  0
    2.0950   -9.0727   16.9501 C   0  0  0  0  0  0  0  0  0  0  0  0
   10.4417   -3.4588   27.2908 F   0  0  0  0  0  0  0  0  0  0  0  0
    8.6454   -8.4068   16.4401 C   0  0  0  0  0  0  0  0  0  0  0  0
   10.5042   -3.4793   19.0865 C   0  0  0  0  0  0  0  0  0  0  0  0
    7.0649   -8.6935   14.8473 C   0  0  0  0  0  0  0  0  0  0  0  0
   10.4663   -3.2199   23.6701 C   0  0  0  0  0  0  0  0  0  0  0  0
   10.1065   -1.8475   23.5197 C   0  0  0  0  0  0  0  0  0  0  0  0
    1.5823  -11.9600   19.6353 C   0  0  0  0  0  0  0  0  0  0  0  0
    9.5298   -1.0774   24.5999 C   0  0  0  0  0  0  0  0  0  0  0  0
   11.2810   -3.3464   21.3712 C   0  0  0  0  0  0  0  0  0  0  0  0
    0.8950  -10.7082   18.1959 N   0  0  0  0  0  0  0  0  0  0  0  0
    9.2915   -5.4217   18.2137 N   0  0  0  0  0  0  0  0  0  0  0  0
    4.5363   -9.4124   17.2802 C   0  0  0  0  0  0  0  0  0  0  0  0
    3.4011   -8.5463   16.5541 C   0  0  0  0  0  0  0  0  0  0  0  0
    5.9933   -9.2710   15.6323 O   0  0  0  0  0  0  0  0  0  0  0  0
    2.0635  -10.2922   17.7159 C   0  0  0  0  0  0  0  0  0  0  0  0
   10.7924   -4.0890   20.0955 C   0  0  0  0  0  0  0  0  0  0  0  0
    9.8560   -1.7292   25.7609 He  0  0  0  0  0  0  0  0  0  0  0  0
   10.8592   -4.0199   22.4720 He  0  0  0  0  0  0  0  0  0  0  0  0
   10.4652   -3.6590   24.6702 He  0  0  0  0  0  0  0  0  0  0  0  0
    0.4226  -11.4178   19.1570 He  0  0  0  0  0  0  0  0  0  0  0  0
  1 15  1  0
  1 16  1  0
  2  7  4  0
  2 25  4  0
  3  6  4  0
  3 13  4  0
  3 29  4  0
  4  9  2  0
  5 16  1  0
  5 18  2  0
  6 12  2  0
  6 21  4  0
  7  8  2  0
  7 30  4  0
  8 10  2  0
  8 12  4  0
  8 26  1  0
  8 28  1  0
  9 10  1  0
  9 25  1  0
 10 16  1  0
 10 21  3  0
 11 14  3  0
 11 15  4  0
 11 17  4  0
 11 25  4  0
 11 27  3  0
 12 19  1  0
 12 20  2  0
 13 26  4  0
 14 16  4  0
 14 17  3  0
 14 27  4  0
 14 29  4  0
 15 16  4  0
 17 28  3  0
 17 30  4  0
 18 28  1  0
 18 29  1  0
 19 20  4  0
 20 22  4  0
 20 30  1  0
 23 30  1  0
 24 29  4  0
 24 30  3  0
 26 27  4  0
M  END
$$$$

 Created by Python create_sdf_string function

 34 38  0  0  0  0  0  0  0  0999 V2000
    9.7521   -1.6632   25.8569 C   0  0  0  0  0  0  0  0  0  0  0  0
   10.2200   -2.9391   25.9841 C   0  0  0  0  0  0  0  0  0  0  0  0
    9.8520   -6.1742   19.1881 C   0  0  0  0  0  0  0  0  0  0  0  0
    3.0493  -10.7133   18.4828 C   0  0  0  0  0  0  0  0  0  0  0  0
    8.0848   -5.2325   16.1952 O   0  0  0  0  0  0  0  0  0  0  0  0
    8.1985   -8.2059   14.9933 C   0  0  0  0  0  0  0  0  0  0  0  0
    2.8523  -11.6519   19.4344 N   0  0  0  0  0  0  0  0  0  0  0  0
   10.8406   -3.9295   22.5394 O   0  0  0  0  0  0  0  0  0  0  0  0
   10.5262   -5.5465   20.2080 C   0  0  0  0  0  0  0  0  0  0  0  0
    5.9362   -8.8626   17.0582 C   0  0  0  0  0  0  0  0  0  0  0  0
    8.4458   -5.9981   17.1415 C   0  0  0  0  0  0  0  0  0  0  0  0
   10.5440   -3.6985   24.8888 C   0  0  0  0  0  0  0  0  0  0  0  0
    7.9942   -7.2807   17.2097 N   0  0  0  0  0  0  0  0  0  0  0  0
    9.7455   -4.1339   18.0484 C   0  0  0  0  0  0  0  0  0  0  0  0
    6.5775   -7.6179   17.4306 C   0  0  0  0  0  0  0  0  0  0  0  0
    4.3078  -10.2873   18.1556 N   0  0  0  0  0  0  0  0  0  0  0  0
    2.1699   -9.1409   16.8823 C   0  0  0  0  0  0  0  0  0  0  0  0
   10.3742   -3.4075   27.2089 F   0  0  0  0  0  0  0  0  0  0  0  0
    8.7065   -8.3136   16.4537 C   0  0  0  0  0  0  0  0  0  0  0  0
   10.4334   -3.5016   19.0244 C   0  0  0  0  0  0  0  0  0  0  0  0
    6.9249   -8.7827   14.7310 C   0  0  0  0  0  0  0  0  0  0  0  0
   10.4738   -3.1326   23.6573 C   0  0  0  0  0  0  0  0  0  0  0  0
   10.0213   -1.8338   23.4639 C   0  0  0  0  0  0  0  0  0  0  0  0
    1.6112  -12.0068   19.7676 C   0  0  0  0  0  0  0  0  0  0  0  0
    9.6340   -1.0773   24.5845 C   0  0  0  0  0  0  0  0  0  0  0  0
   11.2545   -3.4439   21.3091 C   0  0  0  0  0  0  0  0  0  0  0  0
    0.7237  -10.6030   18.1324 N   0  0  0  0  0  0  0  0  0  0  0  0
    9.3715   -5.4548   18.1370 C   0  0  0  0  0  0  0  0  0  0  0  0
    4.5365   -9.3038   17.3124 C   0  0  0  0  0  0  0  0  0  0  0  0
    0.5285  -11.5004   19.0893 C   0  0  0  0  0  0  0  0  0  0  0  0
    3.4765   -8.7182   16.6574 C   0  0  0  0  0  0  0  0  0  0  0  0
    6.1008   -9.2432   15.6427 O   0  0  0  0  0  0  0  0  0  0  0  0
    1.9727  -10.1484   17.8358 C   0  0  0  0  0  0  0  0  0  0  0  0
   10.7353   -4.2007   20.1406 C   0  0  0  0  0  0  0  0  0  0  0  0
  1  2  4  0
  1 25  4  0
  2 12  4  0
  2 18  1  0
  3  9  4  0
  3 28  4  0
  4  7  4  0
  4 16  4  0
  4 33  4  0
  5 11  2  0
  6 19  1  0
  6 21  1  0
  7 24  4  0
  8 22  1  0
  8 26  1  0
  9 34  4  0
 10 15  1  0
 10 29  1  0
 10 32  1  0
 11 13  1  0
 11 28  1  0
 12 22  4  0
 13 15  1  0
 13 19  1  0
 14 20  4  0
 14 28  4  0
 16 29  4  0
 17 31  4  0
 17 33  4  0
 20 34  4  0
 21 32  1  0
 22 23  4  0
 23 25  4  0
 24 30  4  0
 26 34  1  0
 27 30  4  0
 27 33  4  0
 29 31  4  0
M  END
$$$$

 Created by Python create_sdf_string function

 34 44  0  0  0  0  0  0  0  0999 V2000
    9.5897   -1.7142   25.9285 C   0  0  0  0  0  0  0  0  0  0  0  0
   10.2744   -2.8706   25.9579 C   0  0  0  0  0  0  0  0  0  0  0  0
    9.8591   -6.3757   19.0882 C   0  0  0  0  0  0  0  0  0  0  0  0
    3.0231  -10.5705   18.5786 C   0  0  0  0  0  0  0  0  0  0  0  0
    7.9763   -5.2870   16.1755 O   0  0  0  0  0  0  0  0  0  0  0  0
    8.3767   -8.3658   15.0463 C   0  0  0  0  0  0  0  0  0  0  0  0
    2.9331  -11.6404   19.5079 N   0  0  0  0  0  0  0  0  0  0  0  0
   10.8830   -3.8715   22.6439 O   0  0  0  0  0  0  0  0  0  0  0  0
   10.5358   -5.5900   20.2269 C   0  0  0  0  0  0  0  0  0  0  0  0
    5.9543   -8.8786   16.9592 C   0  0  0  0  0  0  0  0  0  0  0  0
   10.6350   -3.6942   24.9767 C   0  0  0  0  0  0  0  0  0  0  0  0
    8.0384   -7.1324   17.1425 N   0  0  0  0  0  0  0  0  0  0  0  0
    9.6489   -4.0888   18.0122 C   0  0  0  0  0  0  0  0  0  0  0  0
    6.6051   -7.7849   17.4154 C   0  0  0  0  0  0  0  0  0  0  0  0
    4.2520  -10.0914   18.2331 N   0  0  0  0  0  0  0  0  0  0  0  0
   10.2190   -3.3593   27.2063 F   0  0  0  0  0  0  0  0  0  0  0  0
    8.6669   -8.2934   16.3203 C   0  0  0  0  0  0  0  0  0  0  0  0
   10.4910   -3.3830   19.0339 C   0  0  0  0  0  0  0  0  0  0  0  0
    6.9098   -8.7540   14.7859 C   0  0  0  0  0  0  0  0  0  0  0  0
   10.5249   -3.0756   23.5612 C   0  0  0  0  0  0  0  0  0  0  0  0
    9.8697   -1.9129   23.5368 C   0  0  0  0  0  0  0  0  0  0  0  0
    1.6290  -11.9567   19.7210 C   0  0  0  0  0  0  0  0  0  0  0  0
    9.4706   -1.0107   24.6054 C   0  0  0  0  0  0  0  0  0  0  0  0
   11.3026   -3.4391   21.3863 C   0  0  0  0  0  0  0  0  0  0  0  0
    0.8401  -10.6671   18.1290 N   0  0  0  0  0  0  0  0  0  0  0  0
    9.5339   -5.6045   18.3137 C   0  0  0  0  0  0  0  0  0  0  0  0
    4.5386   -9.3869   17.2015 C   0  0  0  0  0  0  0  0  0  0  0  0
    0.4996  -11.5386   19.1247 C   0  0  0  0  0  0  0  0  0  0  0  0
    3.4395   -8.7396   16.5953 C   0  0  0  0  0  0  0  0  0  0  0  0
    6.0060   -9.1240   15.6858 O   0  0  0  0  0  0  0  0  0  0  0  0
    1.7975  -10.2561   17.5686 C   0  0  0  0  0  0  0  0  0  0  0  0
   10.6141   -4.0582   20.1474 C   0  0  0  0  0  0  0  0  0  0  0  0
    8.5181   -6.0979   17.1830 He  0  0  0  0  0  0  0  0  0  0  0  0
    2.0130   -9.2727   16.8300 He  0  0  0  0  0  0  0  0  0  0  0  0
  1  2  4  0
  1 23  4  0
  2 11  4  0
  2 16  1  0
  3  9  4  0
  3 25  4  0
  3 26  4  0
  4  5  3  0
  4  7  4  0
  4 12  3  0
  4 15  4  0
  4 28  1  0
  4 31  4  0
  6  8  1  0
  6 17  1  0
  6 19  1  0
  6 28  4  0
  7 13  3  0
  8 20  1  0
  8 24  1  0
  9 32  4  0
 10 14  1  0
 10 25  4  0
 10 27  1  0
 10 30  1  0
 11 20  4  0
 12 14  1  0
 12 17  1  0
 13 16  2  0
 13 18  4  0
 15 27  4  0
 18 32  4  0
 19 30  1  0
 20 21  4  0
 20 22  1  0
 21 23  4  0
 22 28  4  0
 24 32  1  0
 25 28  4  0
 25 31  4  0
 26 32  1  0
 27 29  4  0
 28 31  1  0
 30 31  3  0
M  END
$$$$

 Created by Python create_sdf_string function

 34 38  0  0  0  0  0  0  0  0999 V2000
    9.6032   -1.6331   25.8716 C   0  0  0  0  0  0  0  0  0  0  0  0
   10.1733   -2.8956   26.0306 C   0  0  0  0  0  0  0  0  0  0  0  0
    9.8627   -6.2120   19.1599 C   0  0  0  0  0  0  0  0  0  0  0  0
    3.0447  -10.6436   18.5041 C   0  0  0  0  0  0  0  0  0  0  0  0
    8.0538   -5.2789   16.2262 O   0  0  0  0  0  0  0  0  0  0  0  0
    8.3231   -8.3307   14.9898 C   0  0  0  0  0  0  0  0  0  0  0  0
    2.8673  -11.5728   19.4988 N   0  0  0  0  0  0  0  0  0  0  0  0
   10.8374   -3.8295   22.5689 O   0  0  0  0  0  0  0  0  0  0  0  0
   10.5129   -5.5326   20.2330 C   0  0  0  0  0  0  0  0  0  0  0  0
    5.9112   -8.9280   17.0277 C   0  0  0  0  0  0  0  0  0  0  0  0
    8.4293   -6.0354   17.1294 C   0  0  0  0  0  0  0  0  0  0  0  0
   10.6226   -3.6265   24.9257 C   0  0  0  0  0  0  0  0  0  0  0  0
    7.9656   -7.3314   17.1637 N   0  0  0  0  0  0  0  0  0  0  0  0
    9.7204   -4.1430   18.0442 C   0  0  0  0  0  0  0  0  0  0  0  0
    6.6038   -7.7167   17.3675 C   0  0  0  0  0  0  0  0  0  0  0  0
    4.2792  -10.1680   18.2223 N   0  0  0  0  0  0  0  0  0  0  0  0
    2.1564   -9.2545   16.7855 C   0  0  0  0  0  0  0  0  0  0  0  0
   10.2878   -3.3789   27.2317 F   0  0  0  0  0  0  0  0  0  0  0  0
    8.7504   -8.3332   16.4307 C   0  0  0  0  0  0  0  0  0  0  0  0
   10.3902   -3.4805   19.0620 C   0  0  0  0  0  0  0  0  0  0  0  0
    6.9243   -8.7441   14.7681 C   0  0  0  0  0  0  0  0  0  0  0  0
   10.4751   -3.0738   23.6829 C   0  0  0  0  0  0  0  0  0  0  0  0
    9.9181   -1.8317   23.5043 C   0  0  0  0  0  0  0  0  0  0  0  0
    1.6441  -12.0110   19.7949 C   0  0  0  0  0  0  0  0  0  0  0  0
    9.4520   -1.0857   24.5945 C   0  0  0  0  0  0  0  0  0  0  0  0
   11.2102   -3.4641   21.3646 C   0  0  0  0  0  0  0  0  0  0  0  0
    0.7115  -10.6771   18.0924 N   0  0  0  0  0  0  0  0  0  0  0  0
    9.3654   -5.4674   18.1296 C   0  0  0  0  0  0  0  0  0  0  0  0
    4.5068   -9.2966   17.2956 C   0  0  0  0  0  0  0  0  0  0  0  0
    0.5490  -11.5631   19.0808 C   0  0  0  0  0  0  0  0  0  0  0  0
    3.4486   -8.8193   16.5492 C   0  0  0  0  0  0  0  0  0  0  0  0
    6.0615   -9.1816   15.5896 O   0  0  0  0  0  0  0  0  0  0  0  0
    1.9496  -10.1830   17.8048 C   0  0  0  0  0  0  0  0  0  0  0  0
   10.6847   -4.1932   20.1704 C   0  0  0  0  0  0  0  0  0  0  0  0
  1  2  4  0
  1 25  4  0
  2 12  4  0
  2 18  1  0
  3  9  4  0
  3 28  4  0
  4  7  4  0
  4 16  4  0
  4 33  4  0
  5 11  2  0
  6 19  1  0
  6 21  1  0
  7 24  4  0
  8 22  1  0
  8 26  1  0
  9 34  4  0
 10 15  1  0
 10 29  1  0
 10 32  1  0
 11 13  1  0
 11 28  1  0
 12 22  4  0
 13 15  1  0
 13 19  1  0
 14 20  4  0
 14 28  4  0
 16 29  4  0
 17 31  4  0
 17 33  4  0
 20 34  4  0
 21 32  1  0
 22 23  4  0
 23 25  4  0
 24 30  4  0
 26 34  1  0
 27 30  4  0
 27 33  4  0
 29 31  4  0
M  END
$$$$

 Created by Python create_sdf_string function

 34 46  0  0  0  0  0  0  0  0999 V2000
    9.7088   -1.7359   25.7962 C   0  0  0  0  0  0  0  0  0  0  0  0
   10.1834   -2.8925   26.0179 C   0  0  0  0  0  0  0  0  0  0  0  0
    9.7568   -6.2322   19.0573 P   0  0  0  0  0  0  0  0  0  0  0  0
    3.0277  -10.7128   18.3239 C   0  0  0  0  0  0  0  0  0  0  0  0
    8.0984   -5.3994   16.1436 O   0  0  0  0  0  0  0  0  0  0  0  0
    8.2777   -8.1776   15.1329 C   0  0  0  0  0  0  0  0  0  0  0  0
    2.7963  -11.5324   19.5413 N   0  0  0  0  0  0  0  0  0  0  0  0
   10.9063   -3.8015   22.6866 O   0  0  0  0  0  0  0  0  0  0  0  0
   10.5838   -5.4328   20.3803 C   0  0  0  0  0  0  0  0  0  0  0  0
    5.9486   -8.9081   17.0090 C   0  0  0  0  0  0  0  0  0  0  0  0
    8.5794   -6.0543   17.1149 C   0  0  0  0  0  0  0  0  0  0  0  0
   10.5791   -3.7099   24.9233 C   0  0  0  0  0  0  0  0  0  0  0  0
    7.7708   -7.2382   17.4171 N   0  0  0  0  0  0  0  0  0  0  0  0
    9.7770   -4.0976   18.0753 C   0  0  0  0  0  0  0  0  0  0  0  0
    6.6153   -7.8150   17.4409 C   0  0  0  0  0  0  0  0  0  0  0  0
    4.2269  -10.1389   18.3107 N   0  0  0  0  0  0  0  0  0  0  0  0
    2.1383   -9.1776   16.9455 C   0  0  0  0  0  0  0  0  0  0  0  0
   10.1661   -3.4625   27.2099 F   0  0  0  0  0  0  0  0  0  0  0  0
    8.9048   -8.3955   16.5269 C   0  0  0  0  0  0  0  0  0  0  0  0
   10.3998   -3.4714   18.9753 C   0  0  0  0  0  0  0  0  0  0  0  0
    6.9397   -8.6462   14.7420 C   0  0  0  0  0  0  0  0  0  0  0  0
   10.4340   -3.1798   23.7908 C   0  0  0  0  0  0  0  0  0  0  0  0
    9.8085   -1.7623   23.3679 C   0  0  0  0  0  0  0  0  0  0  0  0
    1.5678  -12.1613   19.8723 C   0  0  0  0  0  0  0  0  0  0  0  0
   11.2425   -3.3042   21.2561 C   0  0  0  0  0  0  0  0  0  0  0  0
    0.6855  -10.7417   18.0538 N   0  0  0  0  0  0  0  0  0  0  0  0
    9.3288   -5.4959   18.1920 C   0  0  0  0  0  0  0  0  0  0  0  0
    4.4585   -9.2838   17.3627 C   0  0  0  0  0  0  0  0  0  0  0  0
    0.4155  -11.6515   19.2254 C   0  0  0  0  0  0  0  0  0  0  0  0
    3.5491   -8.8526   16.5183 C   0  0  0  0  0  0  0  0  0  0  0  0
    6.0167   -9.2285   15.4811 O   0  0  0  0  0  0  0  0  0  0  0  0
    2.0000  -10.1237   17.8833 C   0  0  0  0  0  0  0  0  0  0  0  0
    9.4965   -1.0528   24.4859 He  0  0  0  0  0  0  0  0  0  0  0  0
   10.6300   -4.2113   20.0897 He  0  0  0  0  0  0  0  0  0  0  0  0
  1  2  4  0
  1 26  1  0
  2 12  3  0
  2 18  1  0
  3  4  1  0
  3  9  4  0
  3 17  1  0
  4  7  4  0
  4 11  1  0
  4 13  2  0
  4 16  4  0
  4 20  1  0
  4 27  2  0
  4 28  4  0
  4 32  4  0
  5 11  2  0
  5 20  1  0
  5 23  4  0
  6 19  1  0
  6 21  1  0
  7 24  4  0
  8 22  1  0
 10 15  1  0
 10 28  1  0
 11 13  1  0
 11 27  1  0
 12 15  4  0
 12 32  4  0
 13 15  1  0
 13 16  4  0
 14 20  4  0
 14 27  4  0
 15 21  4  0
 16 28  4  0
 17 23  4  0
 17 30  4  0
 17 32  4  0
 21 31  1  0
 22 23  4  0
 24 29  4  0
 26 29  4  0
 26 32  4  0
 27 32  3  0
 28 30  4  0
 30 31  3  0
 31 32  4  0
M  END
$$$$

 Created by Python create_sdf_string function

 34 38  0  0  0  0  0  0  0  0999 V2000
    9.6305   -1.6407   25.8436 C   0  0  0  0  0  0  0  0  0  0  0  0
   10.1384   -2.9181   26.0127 C   0  0  0  0  0  0  0  0  0  0  0  0
    9.7991   -6.1685   19.2090 C   0  0  0  0  0  0  0  0  0  0  0  0
    3.0110  -10.6623   18.5477 C   0  0  0  0  0  0  0  0  0  0  0  0
    8.1241   -5.3310   16.1659 O   0  0  0  0  0  0  0  0  0  0  0  0
    8.2958   -8.2229   15.0612 C   0  0  0  0  0  0  0  0  0  0  0  0
    2.8319  -11.6166   19.5204 N   0  0  0  0  0  0  0  0  0  0  0  0
   10.8494   -3.8205   22.5464 O   0  0  0  0  0  0  0  0  0  0  0  0
   10.4794   -5.4802   20.2599 C   0  0  0  0  0  0  0  0  0  0  0  0
    5.9028   -9.0019   17.0248 C   0  0  0  0  0  0  0  0  0  0  0  0
    8.4353   -6.0315   17.1397 C   0  0  0  0  0  0  0  0  0  0  0  0
   10.5553   -3.6488   24.8988 C   0  0  0  0  0  0  0  0  0  0  0  0
    7.9385   -7.3402   17.2800 N   0  0  0  0  0  0  0  0  0  0  0  0
    9.7448   -4.1327   18.0206 C   0  0  0  0  0  0  0  0  0  0  0  0
    6.5291   -7.7895   17.4069 C   0  0  0  0  0  0  0  0  0  0  0  0
    4.2584  -10.2010   18.2629 N   0  0  0  0  0  0  0  0  0  0  0  0
    2.1535   -9.2545   16.8509 C   0  0  0  0  0  0  0  0  0  0  0  0
   10.2121   -3.4087   27.2232 F   0  0  0  0  0  0  0  0  0  0  0  0
    8.7274   -8.3661   16.5720 C   0  0  0  0  0  0  0  0  0  0  0  0
   10.4073   -3.4700   19.0229 C   0  0  0  0  0  0  0  0  0  0  0  0
    6.9384   -8.6099   14.7616 C   0  0  0  0  0  0  0  0  0  0  0  0
   10.4464   -3.0741   23.6508 C   0  0  0  0  0  0  0  0  0  0  0  0
    9.9117   -1.8333   23.4627 C   0  0  0  0  0  0  0  0  0  0  0  0
    1.6133  -12.0798   19.8236 C   0  0  0  0  0  0  0  0  0  0  0  0
    9.4840   -1.0876   24.5678 C   0  0  0  0  0  0  0  0  0  0  0  0
   11.1833   -3.4102   21.3204 C   0  0  0  0  0  0  0  0  0  0  0  0
    0.6783  -10.7047   18.1494 N   0  0  0  0  0  0  0  0  0  0  0  0
    9.3615   -5.4508   18.1316 C   0  0  0  0  0  0  0  0  0  0  0  0
    4.5058   -9.3439   17.3137 C   0  0  0  0  0  0  0  0  0  0  0  0
    0.5013  -11.6165   19.1261 C   0  0  0  0  0  0  0  0  0  0  0  0
    3.4589   -8.8253   16.6073 C   0  0  0  0  0  0  0  0  0  0  0  0
    6.0500   -9.2260   15.5629 O   0  0  0  0  0  0  0  0  0  0  0  0
    1.9297  -10.2071   17.8507 C   0  0  0  0  0  0  0  0  0  0  0  0
   10.6788   -4.1518   20.1563 C   0  0  0  0  0  0  0  0  0  0  0  0
  1  2  4  0
  1 25  4  0
  2 12  4  0
  2 18  1  0
  3  9  4  0
  3 28  4  0
  4  7  4  0
  4 16  4  0
  4 33  4  0
  5 11  2  0
  6 19  1  0
  6 21  1  0
  7 24  4  0
  8 22  1  0
  8 26  1  0
  9 34  4  0
 10 15  1  0
 10 29  1  0
 10 32  1  0
 11 13  1  0
 11 28  1  0
 12 22  4  0
 13 15  1  0
 13 19  1  0
 14 20  4  0
 14 28  4  0
 16 29  4  0
 17 31  4  0
 17 33  4  0
 20 34  4  0
 21 32  1  0
 22 23  4  0
 23 25  4  0
 24 30  4  0
 26 34  1  0
 27 30  4  0
 27 33  4  0
 29 31  4  0
M  END
$$$$

 Created by Python create_sdf_string function

 34 53  0  0  0  0  0  0  0  0999 V2000
    9.7447   -1.5062   25.7809 C   0  0  0  0  0  0  0  0  0  0  0  0
   10.0810   -2.9385   26.0971 C   0  0  0  0  0  0  0  0  0  0  0  0
    9.7594   -6.1458   19.1740 C   0  0  0  0  0  0  0  0  0  0  0  0
    3.0235  -10.6944   18.5547 C   0  0  0  0  0  0  0  0  0  0  0  0
    8.1484   -5.3028   16.1622 O   0  0  0  0  0  0  0  0  0  0  0  0
    8.4499   -8.2681   15.1052 C   0  0  0  0  0  0  0  0  0  0  0  0
    2.8850  -11.5993   19.6175 N   0  0  0  0  0  0  0  0  0  0  0  0
   10.8702   -3.9470   22.4073 O   0  0  0  0  0  0  0  0  0  0  0  0
   10.5050   -5.5114   20.2111 C   0  0  0  0  0  0  0  0  0  0  0  0
    5.7973   -9.1325   16.9614 C   0  0  0  0  0  0  0  0  0  0  0  0
    8.4570   -6.0188   17.1683 C   0  0  0  0  0  0  0  0  0  0  0  0
   10.5646   -3.6043   24.9757 C   0  0  0  0  0  0  0  0  0  0  0  0
    7.9750   -7.3367   17.2978 N   0  0  0  0  0  0  0  0  0  0  0  0
    9.6991   -4.0893   18.0476 C   0  0  0  0  0  0  0  0  0  0  0  0
    4.0763  -10.1608   18.2947 N   0  0  0  0  0  0  0  0  0  0  0  0
    2.1219   -9.2325   16.9039 C   0  0  0  0  0  0  0  0  0  0  0  0
   10.1725   -3.4466   27.4392 F   0  0  0  0  0  0  0  0  0  0  0  0
    8.6865   -8.4674   16.6624 C   0  0  0  0  0  0  0  0  0  0  0  0
   10.4082   -3.4581   19.1035 C   0  0  0  0  0  0  0  0  0  0  0  0
    6.9037   -8.5760   14.8874 C   0  0  0  0  0  0  0  0  0  0  0  0
   10.4574   -3.1186   23.6516 C   0  0  0  0  0  0  0  0  0  0  0  0
    9.9866   -1.8854   23.4644 C   0  0  0  0  0  0  0  0  0  0  0  0
    1.5207  -12.0471   19.9029 C   0  0  0  0  0  0  0  0  0  0  0  0
    9.4348   -1.0716   24.5440 C   0  0  0  0  0  0  0  0  0  0  0  0
   11.1702   -3.3129   21.2574 C   0  0  0  0  0  0  0  0  0  0  0  0
    0.7198  -10.6514   18.1085 N   0  0  0  0  0  0  0  0  0  0  0  0
    9.2430   -5.4469   18.1777 N   0  0  0  0  0  0  0  0  0  0  0  0
    4.5708   -9.3048   17.2864 C   0  0  0  0  0  0  0  0  0  0  0  0
    0.5393  -11.6625   19.0567 C   0  0  0  0  0  0  0  0  0  0  0  0
    3.3855   -8.6785   16.7959 C   0  0  0  0  0  0  0  0  0  0  0  0
    5.9895   -9.2555   15.6393 O   0  0  0  0  0  0  0  0  0  0  0  0
    1.9685  -10.2167   17.6331 C   0  0  0  0  0  0  0  0  0  0  0  0
    6.4253   -7.7297   17.3433 He  0  0  0  0  0  0  0  0  0  0  0  0
   10.8610   -4.1035   20.2116 He  0  0  0  0  0  0  0  0  0  0  0  0
  1  2  4  0
  1 24  4  0
  1 26  4  0
  2 12  4  0
  2 17  1  0
  3  9  4  0
  3 27  4  0
  3 29  3  0
  4  7  4  0
  4 15  4  0
  4 30  3  0
  4 32  4  0
  5 10  1  0
  5 11  2  0
  5 32  4  0
  6 18  1  0
  6 20  1  0
  7 10  3  0
  7 23  4  0
  7 24  4  0
  7 30  3  0
  8 16  3  0
  8 21  1  0
  8 24  2  0
  8 25  1  0
  8 26  1  0
  9 24  1  0
 10 17  2  0
 10 28  1  0
 10 31  1  0
 11 13  1  0
 11 27  1  0
 12 21  4  0
 13 18  1  0
 14 16  1  0
 14 19  4  0
 14 22  1  0
 14 24  2  0
 14 27  4  0
 15 28  4  0
 16 21  4  0
 16 30  4  0
 16 32  4  0
 17 26  1  0
 20 31  1  0
 20 32  1  0
 21 22  4  0
 22 24  4  0
 23 29  4  0
 26 29  4  0
 26 32  4  0
 28 30  4  0
 28 32  1  0
M  END
$$$$

 Created by Python create_sdf_string function

 34 38  0  0  0  0  0  0  0  0999 V2000
    9.6455   -1.5841   25.8248 C   0  0  0  0  0  0  0  0  0  0  0  0
   10.1245   -2.8811   26.0321 C   0  0  0  0  0  0  0  0  0  0  0  0
    9.7845   -6.1346   19.2113 C   0  0  0  0  0  0  0  0  0  0  0  0
    2.9993  -10.6771   18.5675 C   0  0  0  0  0  0  0  0  0  0  0  0
    8.1404   -5.3201   16.1875 O   0  0  0  0  0  0  0  0  0  0  0  0
    8.3899   -8.2950   15.1177 C   0  0  0  0  0  0  0  0  0  0  0  0
    2.8067  -11.5992   19.5650 N   0  0  0  0  0  0  0  0  0  0  0  0
   10.8475   -3.8771   22.5413 O   0  0  0  0  0  0  0  0  0  0  0  0
   10.4885   -5.4996   20.2193 C   0  0  0  0  0  0  0  0  0  0  0  0
    5.8912   -9.0311   17.0452 C   0  0  0  0  0  0  0  0  0  0  0  0
    8.4218   -6.0345   17.1618 C   0  0  0  0  0  0  0  0  0  0  0  0
   10.5374   -3.6329   24.9374 C   0  0  0  0  0  0  0  0  0  0  0  0
    7.9043   -7.3255   17.2931 N   0  0  0  0  0  0  0  0  0  0  0  0
    9.6886   -4.1075   18.0479 C   0  0  0  0  0  0  0  0  0  0  0  0
    6.4826   -7.6988   17.3475 C   0  0  0  0  0  0  0  0  0  0  0  0
    4.2435  -10.2250   18.2649 N   0  0  0  0  0  0  0  0  0  0  0  0
    2.1430   -9.2212   16.9000 C   0  0  0  0  0  0  0  0  0  0  0  0
   10.1811   -3.3941   27.2934 F   0  0  0  0  0  0  0  0  0  0  0  0
    8.6660   -8.4298   16.6498 C   0  0  0  0  0  0  0  0  0  0  0  0
   10.3923   -3.4691   19.0172 C   0  0  0  0  0  0  0  0  0  0  0  0
    6.9375   -8.5524   14.8234 C   0  0  0  0  0  0  0  0  0  0  0  0
   10.4625   -3.0992   23.6524 C   0  0  0  0  0  0  0  0  0  0  0  0
    9.9553   -1.8434   23.4475 C   0  0  0  0  0  0  0  0  0  0  0  0
    1.5837  -12.0461   19.8388 C   0  0  0  0  0  0  0  0  0  0  0  0
    9.5285   -1.0704   24.5332 C   0  0  0  0  0  0  0  0  0  0  0  0
   11.1859   -3.3878   21.2860 C   0  0  0  0  0  0  0  0  0  0  0  0
    0.7026  -10.7466   18.0921 N   0  0  0  0  0  0  0  0  0  0  0  0
    9.3017   -5.4483   18.1396 C   0  0  0  0  0  0  0  0  0  0  0  0
    4.4812   -9.3220   17.3522 C   0  0  0  0  0  0  0  0  0  0  0  0
    0.5242  -11.6274   19.0679 C   0  0  0  0  0  0  0  0  0  0  0  0
    3.4319   -8.7543   16.6906 C   0  0  0  0  0  0  0  0  0  0  0  0
    6.0449   -9.2669   15.6150 O   0  0  0  0  0  0  0  0  0  0  0  0
    1.9127  -10.2077   17.8527 C   0  0  0  0  0  0  0  0  0  0  0  0
   10.6955   -4.1518   20.1470 C   0  0  0  0  0  0  0  0  0  0  0  0
  1  2  4  0
  1 25  4  0
  2 12  4  0
  2 18  1  0
  3  9  4  0
  3 28  4  0
  4  7  4  0
  4 16  4  0
  4 33  4  0
  5 11  2  0
  6 19  1  0
  6 21  1  0
  7 24  4  0
  8 22  1  0
  8 26  1  0
  9 34  4  0
 10 15  1  0
 10 29  1  0
 10 32  1  0
 11 13  1  0
 11 28  1  0
 12 22  4  0
 13 15  1  0
 13 19  1  0
 14 20  4  0
 14 28  4  0
 16 29  4  0
 17 31  4  0
 17 33  4  0
 20 34  4  0
 21 32  1  0
 22 23  4  0
 23 25  4  0
 24 30  4  0
 26 34  1  0
 27 30  4  0
 27 33  4  0
 29 31  4  0
M  END
$$$$

 Created by Python create_sdf_string function

 34 49  0  0  0  0  0  0  0  0999 V2000
    9.6335   -1.5848   25.8682 C   0  0  0  0  0  0  0  0  0  0  0  0
   10.1307   -2.8748   26.0431 C   0  0  0  0  0  0  0  0  0  0  0  0
    9.6849   -6.0473   19.1684 C   0  0  0  0  0  0  0  0  0  0  0  0
    3.0456  -10.5931   18.5461 C   0  0  0  0  0  0  0  0  0  0  0  0
    8.1275   -5.4552   16.1328 O   0  0  0  0  0  0  0  0  0  0  0  0
    8.2608   -8.2722   15.1251 C   0  0  0  0  0  0  0  0  0  0  0  0
    2.7513  -11.5199   19.5306 N   0  0  0  0  0  0  0  0  0  0  0  0
   10.7054   -3.8591   22.5414 O   0  0  0  0  0  0  0  0  0  0  0  0
   10.5068   -5.5526   20.0770 C   0  0  0  0  0  0  0  0  0  0  0  0
    5.7978   -9.1090   17.0452 C   0  0  0  0  0  0  0  0  0  0  0  0
    8.3920   -5.9710   17.1986 C   0  0  0  0  0  0  0  0  0  0  0  0
   10.4600   -3.6962   25.0281 C   0  0  0  0  0  0  0  0  0  0  0  0
    7.8431   -7.3094   17.3377 N   0  0  0  0  0  0  0  0  0  0  0  0
    9.6444   -4.0586   18.0308 C   0  0  0  0  0  0  0  0  0  0  0  0
    6.4274   -7.6455   17.3980 C   0  0  0  0  0  0  0  0  0  0  0  0
    4.3136  -10.2294   18.2835 N   0  0  0  0  0  0  0  0  0  0  0  0
    2.1999   -9.1816   16.9082 C   0  0  0  0  0  0  0  0  0  0  0  0
   10.1554   -3.4808   27.3126 F   0  0  0  0  0  0  0  0  0  0  0  0
    8.6804   -8.4625   16.6601 C   0  0  0  0  0  0  0  0  0  0  0  0
   10.4016   -3.5551   19.0105 C   0  0  0  0  0  0  0  0  0  0  0  0
    7.0127   -8.4733   14.8903 C   0  0  0  0  0  0  0  0  0  0  0  0
   10.4480   -3.1571   23.5707 C   0  0  0  0  0  0  0  0  0  0  0  0
   10.0807   -1.8271   23.4498 C   0  0  0  0  0  0  0  0  0  0  0  0
    1.6549  -12.1069   19.8147 C   0  0  0  0  0  0  0  0  0  0  0  0
    9.5657   -1.1680   24.5061 C   0  0  0  0  0  0  0  0  0  0  0  0
   11.2004   -3.3315   21.1306 C   0  0  0  0  0  0  0  0  0  0  0  0
    0.6392  -10.6700   18.1249 N   0  0  0  0  0  0  0  0  0  0  0  0
    9.3149   -5.5121   18.1481 C   0  0  0  0  0  0  0  0  0  0  0  0
    4.5601   -9.3917   17.4676 C   0  0  0  0  0  0  0  0  0  0  0  0
    0.4059  -11.8111   19.1627 C   0  0  0  0  0  0  0  0  0  0  0  0
    3.3983   -8.7318   16.6715 C   0  0  0  0  0  0  0  0  0  0  0  0
    6.0493   -9.1955   15.7190 O   0  0  0  0  0  0  0  0  0  0  0  0
    1.8524  -10.0948   17.8409 C   0  0  0  0  0  0  0  0  0  0  0  0
   10.6378   -4.0835   20.0125 N   0  0  0  0  0  0  0  0  0  0  0  0
  1  2  4  0
  1 25  4  0
  2 12  4  0
  2 18  1  0
  2 19  1  0
  3  9  4  0
  3 17  3  0
  3 28  4  0
  4  7  4  0
  4 16  4  0
  4 33  4  0
  5 11  2  0
  5 22  1  0
  5 28  3  0
  6 19  1  0
  6 21  1  0
  7 11  4  0
  7 24  4  0
  8 22  1  0
  8 26  1  0
  8 29  4  0
  8 31  3  0
  9 34  4  0
 10 15  1  0
 10 29  1  0
 10 32  1  0
 11 13  1  0
 11 28  1  0
 12 22  4  0
 12 34  2  0
 13 15  1  0
 13 19  1  0
 13 24  1  0
 14 20  4  0
 14 28  4  0
 14 33  2  0
 16 29  4  0
 17 31  4  0
 17 33  4  0
 20 34  4  0
 21 32  1  0
 22 23  4  0
 23 25  4  0
 24 30  4  0
 26 34  1  0
 27 30  4  0
 27 33  4  0
 29 30  3  0
 29 31  4  0
M  END
$$$$

 Created by Python create_sdf_string function

 34 38  0  0  0  0  0  0  0  0999 V2000
    9.6282   -1.5869   25.8344 C   0  0  0  0  0  0  0  0  0  0  0  0
   10.0917   -2.8958   26.0323 C   0  0  0  0  0  0  0  0  0  0  0  0
    9.7485   -6.1359   19.1684 C   0  0  0  0  0  0  0  0  0  0  0  0
    3.0090  -10.6625   18.5838 C   0  0  0  0  0  0  0  0  0  0  0  0
    8.1222   -5.3875   16.1373 O   0  0  0  0  0  0  0  0  0  0  0  0
    8.3378   -8.2950   15.1289 C   0  0  0  0  0  0  0  0  0  0  0  0
    2.8077  -11.5778   19.5473 N   0  0  0  0  0  0  0  0  0  0  0  0
   10.7460   -3.8597   22.4910 O   0  0  0  0  0  0  0  0  0  0  0  0
   10.4627   -5.4902   20.1540 C   0  0  0  0  0  0  0  0  0  0  0  0
    5.9008   -9.0147   17.0917 C   0  0  0  0  0  0  0  0  0  0  0  0
    8.3651   -6.0650   17.1294 C   0  0  0  0  0  0  0  0  0  0  0  0
   10.4733   -3.6643   24.9360 C   0  0  0  0  0  0  0  0  0  0  0  0
    7.8329   -7.3324   17.2982 N   0  0  0  0  0  0  0  0  0  0  0  0
    9.6417   -4.1115   17.9843 C   0  0  0  0  0  0  0  0  0  0  0  0
    6.4257   -7.6511   17.4044 C   0  0  0  0  0  0  0  0  0  0  0  0
    4.2544  -10.2241   18.3081 N   0  0  0  0  0  0  0  0  0  0  0  0
    2.1545   -9.1959   16.9385 C   0  0  0  0  0  0  0  0  0  0  0  0
   10.1544   -3.4123   27.2734 F   0  0  0  0  0  0  0  0  0  0  0  0
    8.6281   -8.4095   16.6477 C   0  0  0  0  0  0  0  0  0  0  0  0
   10.3612   -3.4833   18.9625 C   0  0  0  0  0  0  0  0  0  0  0  0
    6.8954   -8.4481   14.8645 C   0  0  0  0  0  0  0  0  0  0  0  0
   10.4332   -3.1025   23.6494 C   0  0  0  0  0  0  0  0  0  0  0  0
   10.0237   -1.8104   23.4550 C   0  0  0  0  0  0  0  0  0  0  0  0
    1.6150  -12.0931   19.8062 C   0  0  0  0  0  0  0  0  0  0  0  0
    9.5752   -1.0598   24.5432 C   0  0  0  0  0  0  0  0  0  0  0  0
   11.1484   -3.4152   21.2241 C   0  0  0  0  0  0  0  0  0  0  0  0
    0.6823  -10.7060   18.1643 N   0  0  0  0  0  0  0  0  0  0  0  0
    9.2500   -5.4400   18.1099 C   0  0  0  0  0  0  0  0  0  0  0  0
    4.4968   -9.3433   17.3777 C   0  0  0  0  0  0  0  0  0  0  0  0
    0.5098  -11.6796   19.0945 C   0  0  0  0  0  0  0  0  0  0  0  0
    3.4561   -8.7854   16.6931 C   0  0  0  0  0  0  0  0  0  0  0  0
    6.0857   -9.2242   15.6665 O   0  0  0  0  0  0  0  0  0  0  0  0
    1.9237  -10.1815   17.8846 C   0  0  0  0  0  0  0  0  0  0  0  0
   10.6606   -4.1704   20.0795 C   0  0  0  0  0  0  0  0  0  0  0  0
  1  2  4  0
  1 25  4  0
  2 12  4  0
  2 18  1  0
  3  9  4  0
  3 28  4  0
  4  7  4  0
  4 16  4  0
  4 33  4  0
  5 11  2  0
  6 19  1  0
  6 21  1  0
  7 24  4  0
  8 22  1  0
  8 26  1  0
  9 34  4  0
 10 15  1  0
 10 29  1  0
 10 32  1  0
 11 13  1  0
 11 28  1  0
 12 22  4  0
 13 15  1  0
 13 19  1  0
 14 20  4  0
 14 28  4  0
 16 29  4  0
 17 31  4  0
 17 33  4  0
 20 34  4  0
 21 32  1  0
 22 23  4  0
 23 25  4  0
 24 30  4  0
 26 34  1  0
 27 30  4  0
 27 33  4  0
 29 31  4  0
M  END
$$$$

 Created by Python create_sdf_string function

 34 48  0  0  0  0  0  0  0  0999 V2000
    9.6740   -1.6100   25.8647 C   0  0  0  0  0  0  0  0  0  0  0  0
    9.9757   -2.8475   25.9344 C   0  0  0  0  0  0  0  0  0  0  0  0
    9.7368   -6.2020   19.2402 C   0  0  0  0  0  0  0  0  0  0  0  0
    2.9929  -10.5852   18.5611 C   0  0  0  0  0  0  0  0  0  0  0  0
    8.2526   -5.3872   16.1259 O   0  0  0  0  0  0  0  0  0  0  0  0
    8.3621   -8.4615   15.2472 C   0  0  0  0  0  0  0  0  0  0  0  0
    2.7990  -11.5690   19.6071 N   0  0  0  0  0  0  0  0  0  0  0  0
   10.7034   -3.8698   22.3881 O   0  0  0  0  0  0  0  0  0  0  0  0
   10.4874   -5.5260   20.1938 C   0  0  0  0  0  0  0  0  0  0  0  0
    5.9367   -9.1181   17.0713 C   0  0  0  0  0  0  0  0  0  0  0  0
    8.4021   -6.0231   17.1254 C   0  0  0  0  0  0  0  0  0  0  0  0
   10.5056   -3.7535   24.9375 C   0  0  0  0  0  0  0  0  0  0  0  0
    7.8018   -7.1900   17.2860 N   0  0  0  0  0  0  0  0  0  0  0  0
    9.5515   -4.1188   17.8993 C   0  0  0  0  0  0  0  0  0  0  0  0
    6.4283   -7.7172   17.4444 C   0  0  0  0  0  0  0  0  0  0  0  0
    4.2360  -10.3036   18.3544 O   0  0  0  0  0  0  0  0  0  0  0  0
    2.2131   -9.3000   16.8297 C   0  0  0  0  0  0  0  0  0  0  0  0
   10.1557   -3.3237   27.3209 F   0  0  0  0  0  0  0  0  0  0  0  0
    8.6858   -8.4192   16.6267 C   0  0  0  0  0  0  0  0  0  0  0  0
   10.4627   -3.5303   18.9001 C   0  0  0  0  0  0  0  0  0  0  0  0
    6.8854   -8.4176   14.9053 C   0  0  0  0  0  0  0  0  0  0  0  0
   10.1433   -1.7872   23.3347 C   0  0  0  0  0  0  0  0  0  0  0  0
    1.7411  -12.1336   19.8600 C   0  0  0  0  0  0  0  0  0  0  0  0
    9.5272   -0.9924   24.5286 C   0  0  0  0  0  0  0  0  0  0  0  0
   11.1833   -3.4142   21.3223 C   0  0  0  0  0  0  0  0  0  0  0  0
    0.5863  -10.8230   18.1738 N   0  0  0  0  0  0  0  0  0  0  0  0
    9.3540   -5.4524   18.0455 C   0  0  0  0  0  0  0  0  0  0  0  0
    4.5010   -9.2741   17.3516 C   0  0  0  0  0  0  0  0  0  0  0  0
    0.4723  -11.6201   19.1094 C   0  0  0  0  0  0  0  0  0  0  0  0
    3.4994   -8.7992   16.7145 C   0  0  0  0  0  0  0  0  0  0  0  0
    6.0941   -9.2004   15.6189 O   0  0  0  0  0  0  0  0  0  0  0  0
    1.9374  -10.1850   17.8261 I   0  0  0  0  0  0  0  0  0  0  0  0
   10.6781   -4.2191   20.1301 C   0  0  0  0  0  0  0  0  0  0  0  0
   10.3561   -3.1391   23.6225 He  0  0  0  0  0  0  0  0  0  0  0  0
  1  2  4  0
  1 24  4  0
  2  4  2  0
  2 12  4  0
  2 18  1  0
  3  9  4  0
  3 27  4  0
  4  7  4  0
  4 16  4  0
  4 24  3  0
  4 27  3  0
  4 32  1  0
  5 11  2  0
  5 32  3  0
  6 19  1  0
  6 21  1  0
  6 26  1  0
  7 23  4  0
  8 25  1  0
  8 26  3  0
  9 15  2  0
  9 33  4  0
 10 15  1  0
 10 28  1  0
 10 31  1  0
 11 13  1  0
 11 21  4  0
 11 27  1  0
 13 15  1  0
 13 19  1  0
 13 23  4  0
 14 20  4  0
 14 27  4  0
 15 28  1  0
 16 28  4  0
 17 30  4  0
 17 32  4  0
 19 22  2  0
 20 23  4  0
 20 33  4  0
 21 31  1  0
 22 24  4  0
 23 29  4  0
 25 26  3  0
 25 33  1  0
 26 29  4  0
 26 32  4  0
 28 30  4  0
M  END
$$$$

 Created by Python create_sdf_string function

 34 38  0  0  0  0  0  0  0  0999 V2000
    9.6199   -1.5725   25.7918 C   0  0  0  0  0  0  0  0  0  0  0  0
   10.0506   -2.8761   25.9839 C   0  0  0  0  0  0  0  0  0  0  0  0
    9.7497   -6.1679   19.1814 C   0  0  0  0  0  0  0  0  0  0  0  0
    3.0359  -10.6929   18.6042 C   0  0  0  0  0  0  0  0  0  0  0  0
    8.2141   -5.3810   16.1019 O   0  0  0  0  0  0  0  0  0  0  0  0
    8.3312   -8.4838   15.1982 C   0  0  0  0  0  0  0  0  0  0  0  0
    2.8333  -11.5935   19.5999 N   0  0  0  0  0  0  0  0  0  0  0  0
   10.6836   -3.8687   22.4901 O   0  0  0  0  0  0  0  0  0  0  0  0
   10.4378   -5.5206   20.2050 C   0  0  0  0  0  0  0  0  0  0  0  0
    5.9413   -9.0729   17.0732 C   0  0  0  0  0  0  0  0  0  0  0  0
    8.4046   -6.0584   17.1050 C   0  0  0  0  0  0  0  0  0  0  0  0
   10.4278   -3.6606   24.8834 C   0  0  0  0  0  0  0  0  0  0  0  0
    7.8141   -7.3040   17.2519 N   0  0  0  0  0  0  0  0  0  0  0  0
    9.6786   -4.1399   17.9560 C   0  0  0  0  0  0  0  0  0  0  0  0
    6.4462   -7.6981   17.4353 C   0  0  0  0  0  0  0  0  0  0  0  0
    4.2789  -10.2205   18.3241 C   0  0  0  0  0  0  0  0  0  0  0  0
    2.1982   -9.2895   16.8911 C   0  0  0  0  0  0  0  0  0  0  0  0
   10.1253   -3.3527   27.2308 F   0  0  0  0  0  0  0  0  0  0  0  0
    8.6492   -8.4052   16.6888 C   0  0  0  0  0  0  0  0  0  0  0  0
   10.3993   -3.5130   18.9370 C   0  0  0  0  0  0  0  0  0  0  0  0
    6.8765   -8.3755   14.8829 C   0  0  0  0  0  0  0  0  0  0  0  0
   10.4086   -3.0968   23.6031 C   0  0  0  0  0  0  0  0  0  0  0  0
   10.0473   -1.7824   23.4119 C   0  0  0  0  0  0  0  0  0  0  0  0
    1.6340  -12.0919   19.8574 C   0  0  0  0  0  0  0  0  0  0  0  0
    9.5916   -0.9913   24.5039 C   0  0  0  0  0  0  0  0  0  0  0  0
   11.1578   -3.4596   21.2505 C   0  0  0  0  0  0  0  0  0  0  0  0
    0.7166  -10.7527   18.1561 N   0  0  0  0  0  0  0  0  0  0  0  0
    9.2864   -5.4675   18.1030 C   0  0  0  0  0  0  0  0  0  0  0  0
    4.5307   -9.3587   17.3695 C   0  0  0  0  0  0  0  0  0  0  0  0
    0.5461  -11.6577   19.1258 C   0  0  0  0  0  0  0  0  0  0  0  0
    3.4839   -8.8586   16.6799 C   0  0  0  0  0  0  0  0  0  0  0  0
    6.0998   -9.2277   15.6451 O   0  0  0  0  0  0  0  0  0  0  0  0
    1.9593  -10.2413   17.8697 C   0  0  0  0  0  0  0  0  0  0  0  0
   10.6580   -4.1900   20.0935 C   0  0  0  0  0  0  0  0  0  0  0  0
  1  2  4  0
  1 25  4  0
  2 12  4  0
  2 18  1  0
  3  9  4  0
  3 28  4  0
  4  7  4  0
  4 16  4  0
  4 33  4  0
  5 11  2  0
  6 19  1  0
  6 21  1  0
  7 24  4  0
  8 22  1  0
  8 26  1  0
  9 34  4  0
 10 15  1  0
 10 29  1  0
 10 32  1  0
 11 13  1  0
 11 28  1  0
 12 22  4  0
 13 15  1  0
 13 19  1  0
 14 20  4  0
 14 28  4  0
 16 29  4  0
 17 31  4  0
 17 33  4  0
 20 34  4  0
 21 32  1  0
 22 23  4  0
 23 25  4  0
 24 30  4  0
 26 34  1  0
 27 30  4  0
 27 33  4  0
 29 31  4  0
M  END
$$$$

 Created by Python create_sdf_string function

 34 54  0  0  0  0  0  0  0  0999 V2000
    9.6013   -1.6460   25.8458 C   0  0  0  0  0  0  0  0  0  0  0  0
   10.1338   -2.7991   26.0153 C   0  0  0  0  0  0  0  0  0  0  0  0
    9.7497   -6.1427   19.1876 C   0  0  0  0  0  0  0  0  0  0  0  0
    2.9477  -10.6582   18.5667 C   0  0  0  0  0  0  0  0  0  0  0  0
    8.2004   -5.3697   16.1315 O   0  0  0  0  0  0  0  0  0  0  0  0
    8.3455   -8.5005   15.1354 C   0  0  0  0  0  0  0  0  0  0  0  0
    2.7925  -11.6374   19.5587 N   0  0  0  0  0  0  0  0  0  0  0  0
   10.7090   -3.9120   22.5928 O   0  0  0  0  0  0  0  0  0  0  0  0
   10.4729   -5.5195   20.2816 C   0  0  0  0  0  0  0  0  0  0  0  0
    5.9371   -9.1009   17.1800 C   0  0  0  0  0  0  0  0  0  0  0  0
    8.4764   -6.1269   17.0948 C   0  0  0  0  0  0  0  0  0  0  0  0
   10.5290   -3.8113   24.8586 C   0  0  0  0  0  0  0  0  0  0  0  0
    7.7174   -7.3809   17.1604 N   0  0  0  0  0  0  0  0  0  0  0  0
    9.6911   -4.1816   17.9386 C   0  0  0  0  0  0  0  0  0  0  0  0
    6.4645   -7.7799   17.4309 C   0  0  0  0  0  0  0  0  0  0  0  0
    4.2486  -10.0635   18.2975 C   0  0  0  0  0  0  0  0  0  0  0  0
    2.0828   -9.2799   16.8874 C   0  0  0  0  0  0  0  0  0  0  0  0
   10.2094   -3.3327   27.1954 F   0  0  0  0  0  0  0  0  0  0  0  0
    8.6771   -8.2697   16.6507 C   0  0  0  0  0  0  0  0  0  0  0  0
   10.3370   -3.4864   18.9591 C   0  0  0  0  0  0  0  0  0  0  0  0
    6.9208   -8.4606   14.8634 C   0  0  0  0  0  0  0  0  0  0  0  0
   10.4812   -3.1333   23.5995 C   0  0  0  0  0  0  0  0  0  0  0  0
   10.0119   -1.8556   23.4226 C   0  0  0  0  0  0  0  0  0  0  0  0
    1.5667  -12.1242   19.8661 C   0  0  0  0  0  0  0  0  0  0  0  0
    9.5155   -0.9500   24.5908 C   0  0  0  0  0  0  0  0  0  0  0  0
   11.2544   -3.4710   21.1680 C   0  0  0  0  0  0  0  0  0  0  0  0
    0.8174  -10.7264   18.1228 N   0  0  0  0  0  0  0  0  0  0  0  0
    9.2723   -5.4516   18.0623 C   0  0  0  0  0  0  0  0  0  0  0  0
    4.5363   -9.3310   17.3137 C   0  0  0  0  0  0  0  0  0  0  0  0
    0.5256  -11.7106   19.1869 C   0  0  0  0  0  0  0  0  0  0  0  0
    3.4577   -8.9310   16.7506 C   0  0  0  0  0  0  0  0  0  0  0  0
    6.0955   -9.3390   15.6224 O   0  0  0  0  0  0  0  0  0  0  0  0
    1.9346  -10.2305   17.8215 C   0  0  0  0  0  0  0  0  0  0  0  0
   10.6777   -4.1526   20.1424 C   0  0  0  0  0  0  0  0  0  0  0  0
  1  2  4  0
  1 25  4  0
  2 12  4  0
  2 14  4  0
  2 18  1  0
  2 32  4  0
  3  9  4  0
  3 28  4  0
  4  7  4  0
  4 10  1  0
  4 16  4  0
  4 26  2  0
  4 27  3  0
  4 33  4  0
  5 11  2  0
  6 19  1  0
  6 21  1  0
  7 18  2  0
  7 24  4  0
  8 11  4  0
  8 19  4  0
  8 22  1  0
  8 26  1  0
  8 27  4  0
  9 14  2  0
  9 34  4  0
 10 15  1  0
 10 16  2  0
 10 29  1  0
 10 32  1  0
 11 13  1  0
 11 23  3  0
 11 28  1  0
 11 34  1  0
 12 22  4  0
 13 19  1  0
 13 31  3  0
 14 15  2  0
 14 20  4  0
 14 28  4  0
 15 33  1  0
 16 29  4  0
 17 31  4  0
 17 33  4  0
 20 34  4  0
 21 32  1  0
 22 23  4  0
 23 25  4  0
 24 30  4  0
 26 28  3  0
 26 34  1  0
 27 30  4  0
 27 33  4  0
 29 31  4  0
M  END
$$$$

 Created by Python create_sdf_string function

 34 38  0  0  0  0  0  0  0  0999 V2000
    9.6255   -1.6035   25.8204 C   0  0  0  0  0  0  0  0  0  0  0  0
   10.1158   -2.8885   25.9793 C   0  0  0  0  0  0  0  0  0  0  0  0
    9.7497   -6.1562   19.1934 C   0  0  0  0  0  0  0  0  0  0  0  0
    3.0086  -10.6998   18.6107 C   0  0  0  0  0  0  0  0  0  0  0  0
    8.1838   -5.3765   16.1095 O   0  0  0  0  0  0  0  0  0  0  0  0
    8.3509   -8.5268   15.1294 C   0  0  0  0  0  0  0  0  0  0  0  0
    2.8110  -11.6259   19.5877 N   0  0  0  0  0  0  0  0  0  0  0  0
   10.7572   -3.8794   22.5032 O   0  0  0  0  0  0  0  0  0  0  0  0
   10.4216   -5.5236   20.2228 C   0  0  0  0  0  0  0  0  0  0  0  0
    5.9502   -9.0842   17.0748 C   0  0  0  0  0  0  0  0  0  0  0  0
    8.3911   -6.0621   17.0900 C   0  0  0  0  0  0  0  0  0  0  0  0
   10.5044   -3.6697   24.8891 C   0  0  0  0  0  0  0  0  0  0  0  0
    7.8038   -7.3195   17.1642 N   0  0  0  0  0  0  0  0  0  0  0  0
    9.6913   -4.1467   17.9677 C   0  0  0  0  0  0  0  0  0  0  0  0
    6.4607   -7.7440   17.4263 C   0  0  0  0  0  0  0  0  0  0  0  0
    4.2609  -10.2121   18.3250 C   0  0  0  0  0  0  0  0  0  0  0  0
    2.1425   -9.3199   16.9038 C   0  0  0  0  0  0  0  0  0  0  0  0
   10.2175   -3.3528   27.1916 F   0  0  0  0  0  0  0  0  0  0  0  0
    8.6955   -8.3719   16.6070 C   0  0  0  0  0  0  0  0  0  0  0  0
   10.3580   -3.5030   18.9642 C   0  0  0  0  0  0  0  0  0  0  0  0
    6.8723   -8.4319   14.8631 C   0  0  0  0  0  0  0  0  0  0  0  0
   10.4332   -3.0948   23.6178 C   0  0  0  0  0  0  0  0  0  0  0  0
    9.9869   -1.7995   23.4383 C   0  0  0  0  0  0  0  0  0  0  0  0
    1.6135  -12.1055   19.8500 C   0  0  0  0  0  0  0  0  0  0  0  0
    9.5435   -1.0172   24.5294 C   0  0  0  0  0  0  0  0  0  0  0  0
   11.1973   -3.4772   21.2526 C   0  0  0  0  0  0  0  0  0  0  0  0
    0.7205  -10.7822   18.1760 N   0  0  0  0  0  0  0  0  0  0  0  0
    9.3028   -5.4699   18.1038 C   0  0  0  0  0  0  0  0  0  0  0  0
    4.5102   -9.3675   17.3634 C   0  0  0  0  0  0  0  0  0  0  0  0
    0.5445  -11.6776   19.1358 C   0  0  0  0  0  0  0  0  0  0  0  0
    3.4342   -8.9007   16.6752 C   0  0  0  0  0  0  0  0  0  0  0  0
    6.1225   -9.3212   15.6661 O   0  0  0  0  0  0  0  0  0  0  0  0
    1.9187  -10.2724   17.8989 C   0  0  0  0  0  0  0  0  0  0  0  0
   10.6414   -4.1883   20.1122 C   0  0  0  0  0  0  0  0  0  0  0  0
  1  2  4  0
  1 25  4  0
  2 12  4  0
  2 18  1  0
  3  9  4  0
  3 28  4  0
  4  7  4  0
  4 16  4  0
  4 33  4  0
  5 11  2  0
  6 19  1  0
  6 21  1  0
  7 24  4  0
  8 22  1  0
  8 26  1  0
  9 34  4  0
 10 15  1  0
 10 29  1  0
 10 32  1  0
 11 13  1  0
 11 28  1  0
 12 22  4  0
 13 15  1  0
 13 19  1  0
 14 20  4  0
 14 28  4  0
 16 29  4  0
 17 31  4  0
 17 33  4  0
 20 34  4  0
 21 32  1  0
 22 23  4  0
 23 25  4  0
 24 30  4  0
 26 34  1  0
 27 30  4  0
 27 33  4  0
 29 31  4  0
M  END
$$$$

 Created by Python create_sdf_string function

 34 52  0  0  0  0  0  0  0  0999 V2000
    9.5952   -1.5842   25.8245 C   0  0  0  0  0  0  0  0  0  0  0  0
   10.0959   -2.8400   25.9506 C   0  0  0  0  0  0  0  0  0  0  0  0
    9.7209   -6.2832   19.2585 C   0  0  0  0  0  0  0  0  0  0  0  0
    3.1445  -10.6839   18.6525 C   0  0  0  0  0  0  0  0  0  0  0  0
    8.0864   -5.3359   16.0664 I   0  0  0  0  0  0  0  0  0  0  0  0
    8.3937   -8.5513   15.1131 C   0  0  0  0  0  0  0  0  0  0  0  0
    2.7904  -11.5871   19.5460 N   0  0  0  0  0  0  0  0  0  0  0  0
   10.7317   -3.8427   22.4085 O   0  0  0  0  0  0  0  0  0  0  0  0
   10.3881   -5.5274   20.2664 C   0  0  0  0  0  0  0  0  0  0  0  0
    5.9452   -8.9733   17.0718 C   0  0  0  0  0  0  0  0  0  0  0  0
    8.4255   -5.9600   17.1513 O   0  0  0  0  0  0  0  0  0  0  0  0
   10.5894   -3.6470   24.8865 C   0  0  0  0  0  0  0  0  0  0  0  0
    7.9083   -7.3339   17.2273 N   0  0  0  0  0  0  0  0  0  0  0  0
    9.5815   -4.1573   17.9987 C   0  0  0  0  0  0  0  0  0  0  0  0
    6.5555   -7.7044   17.4239 C   0  0  0  0  0  0  0  0  0  0  0  0
    4.2950  -10.1569   18.3635 C   0  0  0  0  0  0  0  0  0  0  0  0
    2.1967   -9.2886   16.9457 C   0  0  0  0  0  0  0  0  0  0  0  0
   10.2437   -3.3427   27.2422 F   0  0  0  0  0  0  0  0  0  0  0  0
    8.5955   -8.3850   16.6258 C   0  0  0  0  0  0  0  0  0  0  0  0
   10.3646   -3.5082   18.9179 C   0  0  0  0  0  0  0  0  0  0  0  0
    6.8431   -8.4731   14.8190 C   0  0  0  0  0  0  0  0  0  0  0  0
   10.4099   -3.0251   23.6937 C   0  0  0  0  0  0  0  0  0  0  0  0
   10.0703   -1.8778   23.4531 C   0  0  0  0  0  0  0  0  0  0  0  0
    1.5978  -12.0519   19.7893 C   0  0  0  0  0  0  0  0  0  0  0  0
    9.6264   -1.1010   24.5737 C   0  0  0  0  0  0  0  0  0  0  0  0
   11.2303   -3.4938   21.2280 C   0  0  0  0  0  0  0  0  0  0  0  0
    0.7008  -10.7386   18.2182 N   0  0  0  0  0  0  0  0  0  0  0  0
    9.2763   -5.4113   18.1148 C   0  0  0  0  0  0  0  0  0  0  0  0
    4.4830   -9.3940   17.3829 C   0  0  0  0  0  0  0  0  0  0  0  0
    0.5407  -11.6799   19.2465 C   0  0  0  0  0  0  0  0  0  0  0  0
    3.3933   -8.8148   16.6567 C   0  0  0  0  0  0  0  0  0  0  0  0
    6.2115   -9.3136   15.6740 O   0  0  0  0  0  0  0  0  0  0  0  0
    1.8946  -10.2998   17.9362 C   0  0  0  0  0  0  0  0  0  0  0  0
   10.5853   -4.1819   20.0563 C   0  0  0  0  0  0  0  0  0  0  0  0
  1  2  4  0
  1  5  3  0
  1 16  1  0
  1 18  2  0
  1 25  4  0
  2 12  4  0
  2 18  1  0
  2 19  2  0
  3  9  4  0
  3 28  4  0
  4  7  4  0
  4 11  1  0
  4 16  4  0
  4 33  4  0
  5 11  2  0
  5 24  4  0
  6 19  1  0
  6 21  1  0
  6 27  3  0
  7 24  4  0
  7 31  2  0
  8 22  1  0
  8 26  1  0
  9 24  3  0
  9 34  4  0
 10 15  1  0
 10 17  3  0
 10 29  1  0
 10 32  1  0
 11 13  1  0
 11 16  4  0
 11 28  1  0
 12 22  4  0
 12 29  2  0
 13 15  1  0
 13 19  1  0
 14 20  4  0
 14 28  4  0
 16 29  4  0
 17 31  4  0
 17 33  4  0
 20 34  4  0
 21 26  3  0
 21 27  3  0
 21 32  1  0
 22 23  4  0
 23 25  4  0
 24 30  4  0
 26 34  1  0
 27 30  4  0
 27 33  4  0
 29 31  4  0
M  END
$$$$

 Created by Python create_sdf_string function

 34 38  0  0  0  0  0  0  0  0999 V2000
    9.6258   -1.5886   25.8084 C   0  0  0  0  0  0  0  0  0  0  0  0
   10.1241   -2.8690   25.9874 C   0  0  0  0  0  0  0  0  0  0  0  0
    9.6902   -6.1969   19.1970 C   0  0  0  0  0  0  0  0  0  0  0  0
    3.0478  -10.7122   18.6438 C   0  0  0  0  0  0  0  0  0  0  0  0
    8.0861   -5.3813   16.1102 O   0  0  0  0  0  0  0  0  0  0  0  0
    8.3582   -8.5299   15.1411 C   0  0  0  0  0  0  0  0  0  0  0  0
    2.8382  -11.6364   19.6005 N   0  0  0  0  0  0  0  0  0  0  0  0
   10.7353   -3.8285   22.4899 O   0  0  0  0  0  0  0  0  0  0  0  0
   10.3731   -5.5355   20.2216 C   0  0  0  0  0  0  0  0  0  0  0  0
    5.9373   -8.9857   17.0828 C   0  0  0  0  0  0  0  0  0  0  0  0
    8.3805   -6.0649   17.0982 C   0  0  0  0  0  0  0  0  0  0  0  0
   10.5365   -3.6223   24.8963 C   0  0  0  0  0  0  0  0  0  0  0  0
    7.8845   -7.3350   17.2068 N   0  0  0  0  0  0  0  0  0  0  0  0
    9.6249   -4.1411   17.9713 C   0  0  0  0  0  0  0  0  0  0  0  0
    6.4949   -7.6746   17.4235 C   0  0  0  0  0  0  0  0  0  0  0  0
    4.3046  -10.2223   18.3420 C   0  0  0  0  0  0  0  0  0  0  0  0
    2.1603   -9.3152   16.9489 C   0  0  0  0  0  0  0  0  0  0  0  0
   10.2140   -3.3333   27.2000 F   0  0  0  0  0  0  0  0  0  0  0  0
    8.6717   -8.4212   16.6164 C   0  0  0  0  0  0  0  0  0  0  0  0
   10.3355   -3.5125   18.9458 C   0  0  0  0  0  0  0  0  0  0  0  0
    6.8799   -8.4679   14.8339 C   0  0  0  0  0  0  0  0  0  0  0  0
   10.4487   -3.0636   23.6370 C   0  0  0  0  0  0  0  0  0  0  0  0
   10.0225   -1.7858   23.4474 C   0  0  0  0  0  0  0  0  0  0  0  0
    1.6294  -12.0877   19.8543 C   0  0  0  0  0  0  0  0  0  0  0  0
    9.5916   -1.0403   24.5327 C   0  0  0  0  0  0  0  0  0  0  0  0
   11.1823   -3.4940   21.2152 C   0  0  0  0  0  0  0  0  0  0  0  0
    0.7353  -10.7506   18.2373 N   0  0  0  0  0  0  0  0  0  0  0  0
    9.2549   -5.4652   18.1195 C   0  0  0  0  0  0  0  0  0  0  0  0
    4.5203   -9.3509   17.3730 C   0  0  0  0  0  0  0  0  0  0  0  0
    0.5534  -11.6463   19.1862 C   0  0  0  0  0  0  0  0  0  0  0  0
    3.4479   -8.8760   16.6840 C   0  0  0  0  0  0  0  0  0  0  0  0
    6.1770   -9.3132   15.7143 O   0  0  0  0  0  0  0  0  0  0  0  0
    1.9551  -10.2568   17.9374 C   0  0  0  0  0  0  0  0  0  0  0  0
   10.6132   -4.2050   20.0903 C   0  0  0  0  0  0  0  0  0  0  0  0
  1  2  4  0
  1 25  4  0
  2 12  4  0
  2 18  1  0
  3  9  4  0
  3 28  4  0
  4  7  4  0
  4 16  4  0
  4 33  4  0
  5 11  2  0
  6 19  1  0
  6 21  1  0
  7 24  4  0
  8 22  1  0
  8 26  1  0
  9 34  4  0
 10 15  1  0
 10 29  1  0
 10 32  1  0
 11 13  1  0
 11 28  1  0
 12 22  4  0
 13 15  1  0
 13 19  1  0
 14 20  4  0
 14 28  4  0
 16 29  4  0
 17 31  4  0
 17 33  4  0
 20 34  4  0
 21 32  1  0
 22 23  4  0
 23 25  4  0
 24 30  4  0
 26 34  1  0
 27 30  4  0
 27 33  4  0
 29 31  4  0
M  END
$$$$

 Created by Python create_sdf_string function

 34 46  0  0  0  0  0  0  0  0999 V2000
    9.5939   -1.6263   25.8019 C   0  0  0  0  0  0  0  0  0  0  0  0
    9.9914   -2.9148   26.0683 C   0  0  0  0  0  0  0  0  0  0  0  0
    9.7235   -6.2309   19.1804 C   0  0  0  0  0  0  0  0  0  0  0  0
    3.0572  -10.7271   18.5673 C   0  0  0  0  0  0  0  0  0  0  0  0
    8.1148   -5.3336   16.0698 O   0  0  0  0  0  0  0  0  0  0  0  0
    8.3773   -8.4290   15.1288 C   0  0  0  0  0  0  0  0  0  0  0  0
    2.8551  -11.6614   19.6308 N   0  0  0  0  0  0  0  0  0  0  0  0
   10.7750   -3.8266   22.4180 O   0  0  0  0  0  0  0  0  0  0  0  0
   10.3744   -5.6222   20.1097 C   0  0  0  0  0  0  0  0  0  0  0  0
    5.9419   -8.9329   17.0586 C   0  0  0  0  0  0  0  0  0  0  0  0
    8.4642   -6.0135   17.0914 C   0  0  0  0  0  0  0  0  0  0  0  0
   10.5837   -3.6011   24.9275 C   0  0  0  0  0  0  0  0  0  0  0  0
    7.8950   -7.3850   17.1650 N   0  0  0  0  0  0  0  0  0  0  0  0
    9.6379   -4.0932   17.9669 C   0  0  0  0  0  0  0  0  0  0  0  0
    6.5427   -7.6141   17.3543 C   0  0  0  0  0  0  0  0  0  0  0  0
    4.3522  -10.2635   18.3310 C   0  0  0  0  0  0  0  0  0  0  0  0
    2.1116   -9.3526   16.9069 C   0  0  0  0  0  0  0  0  0  0  0  0
   10.2320   -3.3947   27.2888 F   0  0  0  0  0  0  0  0  0  0  0  0
    8.7151   -8.4271   16.6352 C   0  0  0  0  0  0  0  0  0  0  0  0
   10.2941   -3.5990   19.0030 N   0  0  0  0  0  0  0  0  0  0  0  0
    6.9128   -8.5019   14.7319 C   0  0  0  0  0  0  0  0  0  0  0  0
   10.4900   -3.0839   23.6403 C   0  0  0  0  0  0  0  0  0  0  0  0
    9.9074   -1.7909   23.4747 C   0  0  0  0  0  0  0  0  0  0  0  0
    1.5479  -12.0831   19.8466 C   0  0  0  0  0  0  0  0  0  0  0  0
    9.6155   -1.0681   24.4848 C   0  0  0  0  0  0  0  0  0  0  0  0
   11.1799   -3.5558   21.1949 C   0  0  0  0  0  0  0  0  0  0  0  0
    0.6909  -10.7259   18.1888 N   0  0  0  0  0  0  0  0  0  0  0  0
    9.2104   -5.4679   18.1187 C   0  0  0  0  0  0  0  0  0  0  0  0
    4.5641   -9.3365   17.3925 C   0  0  0  0  0  0  0  0  0  0  0  0
    0.7425  -11.7156   19.1979 C   0  0  0  0  0  0  0  0  0  0  0  0
    3.4128   -8.8772   16.6752 C   0  0  0  0  0  0  0  0  0  0  0  0
    6.1350   -9.3524   15.7222 O   0  0  0  0  0  0  0  0  0  0  0  0
    1.9727  -10.2228   17.9887 C   0  0  0  0  0  0  0  0  0  0  0  0
   10.6348   -4.2039   20.0814 C   0  0  0  0  0  0  0  0  0  0  0  0
  1  2  4  0
  1 25  4  0
  2 12  4  0
  2 18  1  0
  3  9  4  0
  3 28  4  0
  4  7  4  0
  4 16  4  0
  4 33  4  0
  5 11  2  0
  6 19  1  0
  6 21  1  0
  7 24  4  0
  7 32  1  0
  8 22  1  0
  8 26  1  0
  9 34  4  0
 10 15  1  0
 10 29  1  0
 10 32  1  0
 11 13  1  0
 11 28  1  0
 12 22  4  0
 13 15  1  0
 13 19  1  0
 13 22  3  0
 14 20  4  0
 14 25  1  0
 14 28  4  0
 16 29  4  0
 16 33  1  0
 17 31  4  0
 17 33  4  0
 18 22  4  0
 20 34  4  0
 21 32  1  0
 22 23  4  0
 22 34  3  0
 23 25  4  0
 24 30  4  0
 26 34  1  0
 27 30  4  0
 27 33  4  0
 28 29  4  0
 29 31  4  0
 30 34  1  0
M  END
$$$$

 Created by Python create_sdf_string function

 34 38  0  0  0  0  0  0  0  0999 V2000
    9.5841   -1.5960   25.7894 C   0  0  0  0  0  0  0  0  0  0  0  0
   10.0790   -2.9003   25.9939 C   0  0  0  0  0  0  0  0  0  0  0  0
    9.7014   -6.1995   19.1349 C   0  0  0  0  0  0  0  0  0  0  0  0
    3.0762  -10.7407   18.6407 C   0  0  0  0  0  0  0  0  0  0  0  0
    8.1317   -5.3466   16.1088 O   0  0  0  0  0  0  0  0  0  0  0  0
    8.3779   -8.4612   15.1136 C   0  0  0  0  0  0  0  0  0  0  0  0
    2.8687  -11.6684   19.6241 N   0  0  0  0  0  0  0  0  0  0  0  0
   10.7709   -3.7923   22.4546 O   0  0  0  0  0  0  0  0  0  0  0  0
   10.3994   -5.5852   20.1642 C   0  0  0  0  0  0  0  0  0  0  0  0
    5.9341   -8.9373   17.0779 C   0  0  0  0  0  0  0  0  0  0  0  0
    8.3920   -6.0544   17.0691 C   0  0  0  0  0  0  0  0  0  0  0  0
   10.5427   -3.6094   24.8939 C   0  0  0  0  0  0  0  0  0  0  0  0
    7.8909   -7.3196   17.1545 N   0  0  0  0  0  0  0  0  0  0  0  0
    9.6259   -4.1267   17.9813 C   0  0  0  0  0  0  0  0  0  0  0  0
    6.5167   -7.6160   17.3454 C   0  0  0  0  0  0  0  0  0  0  0  0
    4.3341  -10.2506   18.3178 C   0  0  0  0  0  0  0  0  0  0  0  0
    2.1691   -9.3329   16.9452 C   0  0  0  0  0  0  0  0  0  0  0  0
   10.1855   -3.3879   27.2280 F   0  0  0  0  0  0  0  0  0  0  0  0
    8.6829   -8.4106   16.6198 C   0  0  0  0  0  0  0  0  0  0  0  0
   10.2994   -3.5571   18.9911 N   0  0  0  0  0  0  0  0  0  0  0  0
    6.8953   -8.5089   14.8119 C   0  0  0  0  0  0  0  0  0  0  0  0
   10.4527   -3.0636   23.6268 C   0  0  0  0  0  0  0  0  0  0  0  0
    9.9564   -1.7961   23.4281 C   0  0  0  0  0  0  0  0  0  0  0  0
    1.6505  -12.1204   19.8906 C   0  0  0  0  0  0  0  0  0  0  0  0
    9.5587   -1.0484   24.5151 C   0  0  0  0  0  0  0  0  0  0  0  0
   11.1743   -3.5334   21.1940 C   0  0  0  0  0  0  0  0  0  0  0  0
    0.7633  -10.7648   18.2401 N   0  0  0  0  0  0  0  0  0  0  0  0
    9.2453   -5.4715   18.0740 C   0  0  0  0  0  0  0  0  0  0  0  0
    4.5348   -9.3490   17.3683 C   0  0  0  0  0  0  0  0  0  0  0  0
    0.6234  -11.6660   19.1619 C   0  0  0  0  0  0  0  0  0  0  0  0
    3.4464   -8.8889   16.6900 C   0  0  0  0  0  0  0  0  0  0  0  0
    6.1542   -9.3193   15.7180 O   0  0  0  0  0  0  0  0  0  0  0  0
    1.9745  -10.2840   17.9428 C   0  0  0  0  0  0  0  0  0  0  0  0
   10.6047   -4.2548   20.0876 C   0  0  0  0  0  0  0  0  0  0  0  0
  1  2  4  0
  1 25  4  0
  2 12  4  0
  2 18  1  0
  3  9  4  0
  3 28  4  0
  4  7  4  0
  4 16  4  0
  4 33  4  0
  5 11  2  0
  6 19  1  0
  6 21  1  0
  7 24  4  0
  8 22  1  0
  8 26  1  0
  9 34  4  0
 10 15  1  0
 10 29  1  0
 10 32  1  0
 11 13  1  0
 11 28  1  0
 12 22  4  0
 13 15  1  0
 13 19  1  0
 14 20  4  0
 14 28  4  0
 16 29  4  0
 17 31  4  0
 17 33  4  0
 20 34  4  0
 21 32  1  0
 22 23  4  0
 23 25  4  0
 24 30  4  0
 26 34  1  0
 27 30  4  0
 27 33  4  0
 29 31  4  0
M  END
$$$$

 Created by Python create_sdf_string function

 34 37  0  0  0  0  0  0  0  0999 V2000
    9.5612   -1.5952   25.8013 C   0  0  0  0  0  0  0  0  0  0  0  0
   10.1654   -2.9197   26.1030 C   0  0  0  0  0  0  0  0  0  0  0  0
    9.6634   -6.2733   19.1113 C   0  0  0  0  0  0  0  0  0  0  0  0
    8.1449   -5.2265   16.0532 O   0  0  0  0  0  0  0  0  0  0  0  0
    2.8723  -11.6301   19.6145 N   0  0  0  0  0  0  0  0  0  0  0  0
   10.7781   -3.8273   22.4779 O   0  0  0  0  0  0  0  0  0  0  0  0
   10.3961   -5.6313   20.1654 C   0  0  0  0  0  0  0  0  0  0  0  0
    5.9316   -8.8711   17.1231 C   0  0  0  0  0  0  0  0  0  0  0  0
    8.3962   -6.1131   17.0782 C   0  0  0  0  0  0  0  0  0  0  0  0
   10.5131   -3.6353   24.9142 C   0  0  0  0  0  0  0  0  0  0  0  0
    7.8713   -7.4539   17.2116 N   0  0  0  0  0  0  0  0  0  0  0  0
    9.6356   -4.1841   18.0003 C   0  0  0  0  0  0  0  0  0  0  0  0
    6.4108   -7.5669   17.3268 C   0  0  0  0  0  0  0  0  0  0  0  0
    4.2154  -10.1935   18.3185 C   0  0  0  0  0  0  0  0  0  0  0  0
    2.1755   -9.3450   17.0304 C   0  0  0  0  0  0  0  0  0  0  0  0
    8.6576   -8.3742   16.5820 C   0  0  0  0  0  0  0  0  0  0  0  0
   10.3193   -3.5065   19.0319 N   0  0  0  0  0  0  0  0  0  0  0  0
    6.8939   -8.5615   14.7796 C   0  0  0  0  0  0  0  0  0  0  0  0
   10.5315   -3.1128   23.5991 C   0  0  0  0  0  0  0  0  0  0  0  0
    9.8985   -1.8052   23.4366 C   0  0  0  0  0  0  0  0  0  0  0  0
    1.6288  -12.1109   19.9126 C   0  0  0  0  0  0  0  0  0  0  0  0
    9.6220   -1.0633   24.4466 C   0  0  0  0  0  0  0  0  0  0  0  0
   11.2354   -3.5528   21.1811 C   0  0  0  0  0  0  0  0  0  0  0  0
    0.7813  -10.8079   18.1909 N   0  0  0  0  0  0  0  0  0  0  0  0
    9.2103   -5.5332   18.0697 C   0  0  0  0  0  0  0  0  0  0  0  0
    4.5678   -9.3502   17.3985 C   0  0  0  0  0  0  0  0  0  0  0  0
    0.6078  -11.5480   19.0834 C   0  0  0  0  0  0  0  0  0  0  0  0
    3.4259   -8.8214   16.6551 C   0  0  0  0  0  0  0  0  0  0  0  0
    6.1739   -9.3165   15.7848 O   0  0  0  0  0  0  0  0  0  0  0  0
    2.0476  -10.2968   17.9106 C   0  0  0  0  0  0  0  0  0  0  0  0
   10.6561   -4.2449   20.0620 C   0  0  0  0  0  0  0  0  0  0  0  0
    3.0783  -10.7353   18.6150 He  0  0  0  0  0  0  0  0  0  0  0  0
    8.4152   -8.5040   15.1513 He  0  0  0  0  0  0  0  0  0  0  0  0
   10.1613   -3.3872   27.2051 He  0  0  0  0  0  0  0  0  0  0  0  0
  1  2  4  0
  1 22  4  0
  2 10  4  0
  3  7  4  0
  3 25  4  0
  4  9  2  0
  5 19  3  0
  5 20  3  0
  5 21  4  0
  6 19  1  0
  6 23  1  0
  7 31  4  0
  8 13  1  0
  8 23  1  0
  8 26  1  0
  8 29  1  0
  9 11  1  0
  9 25  1  0
 10 19  4  0
 11 13  1  0
 11 16  1  0
 12 17  4  0
 12 23  4  0
 12 25  4  0
 14 26  4  0
 15 28  4  0
 15 30  4  0
 17 31  4  0
 18 24  4  0
 18 29  1  0
 19 20  4  0
 20 22  4  0
 21 27  4  0
 23 31  1  0
 24 27  4  0
 24 30  4  0
 26 28  4  0
M  END
$$$$

 Created by Python create_sdf_string function

 34 38  0  0  0  0  0  0  0  0999 V2000
    9.5933   -1.5749   25.7887 C   0  0  0  0  0  0  0  0  0  0  0  0
   10.1142   -2.8738   25.9705 C   0  0  0  0  0  0  0  0  0  0  0  0
    9.6809   -6.2402   19.1315 C   0  0  0  0  0  0  0  0  0  0  0  0
    3.0666  -10.7408   18.6477 C   0  0  0  0  0  0  0  0  0  0  0  0
    8.1369   -5.3208   16.1070 O   0  0  0  0  0  0  0  0  0  0  0  0
    8.3780   -8.5167   15.1405 C   0  0  0  0  0  0  0  0  0  0  0  0
    2.8722  -11.6611   19.6305 N   0  0  0  0  0  0  0  0  0  0  0  0
   10.7799   -3.7997   22.4493 O   0  0  0  0  0  0  0  0  0  0  0  0
   10.3897   -5.6226   20.1665 C   0  0  0  0  0  0  0  0  0  0  0  0
    5.9174   -8.9152   17.1136 C   0  0  0  0  0  0  0  0  0  0  0  0
    8.3726   -6.0762   17.0534 C   0  0  0  0  0  0  0  0  0  0  0  0
   10.5314   -3.6160   24.8665 C   0  0  0  0  0  0  0  0  0  0  0  0
    7.8583   -7.3493   17.1685 N   0  0  0  0  0  0  0  0  0  0  0  0
    9.6308   -4.1766   18.0011 C   0  0  0  0  0  0  0  0  0  0  0  0
    6.4542   -7.5660   17.3025 C   0  0  0  0  0  0  0  0  0  0  0  0
    4.3049  -10.2351   18.3288 C   0  0  0  0  0  0  0  0  0  0  0  0
    2.1917   -9.3413   16.9746 C   0  0  0  0  0  0  0  0  0  0  0  0
   10.1789   -3.3859   27.2130 F   0  0  0  0  0  0  0  0  0  0  0  0
    8.6835   -8.3977   16.6065 C   0  0  0  0  0  0  0  0  0  0  0  0
   10.3016   -3.5689   18.9923 N   0  0  0  0  0  0  0  0  0  0  0  0
    6.8998   -8.5666   14.8286 C   0  0  0  0  0  0  0  0  0  0  0  0
   10.4640   -3.0837   23.5955 C   0  0  0  0  0  0  0  0  0  0  0  0
    9.9612   -1.8179   23.3918 C   0  0  0  0  0  0  0  0  0  0  0  0
    1.6579  -12.0914   19.8899 C   0  0  0  0  0  0  0  0  0  0  0  0
    9.5571   -1.0365   24.4803 C   0  0  0  0  0  0  0  0  0  0  0  0
   11.2161   -3.5614   21.1968 C   0  0  0  0  0  0  0  0  0  0  0  0
    0.7850  -10.7924   18.2022 N   0  0  0  0  0  0  0  0  0  0  0  0
    9.2264   -5.5167   18.0647 C   0  0  0  0  0  0  0  0  0  0  0  0
    4.5204   -9.3351   17.3945 C   0  0  0  0  0  0  0  0  0  0  0  0
    0.6136  -11.6451   19.1650 C   0  0  0  0  0  0  0  0  0  0  0  0
    3.4450   -8.8622   16.7087 C   0  0  0  0  0  0  0  0  0  0  0  0
    6.1779   -9.3200   15.7710 O   0  0  0  0  0  0  0  0  0  0  0  0
    1.9945  -10.2947   17.9388 C   0  0  0  0  0  0  0  0  0  0  0  0
   10.6206   -4.2782   20.0957 C   0  0  0  0  0  0  0  0  0  0  0  0
  1  2  4  0
  1 25  4  0
  2 12  4  0
  2 18  1  0
  3  9  4  0
  3 28  4  0
  4  7  4  0
  4 16  4  0
  4 33  4  0
  5 11  2  0
  6 19  1  0
  6 21  1  0
  7 24  4  0
  8 22  1  0
  8 26  1  0
  9 34  4  0
 10 15  1  0
 10 29  1  0
 10 32  1  0
 11 13  1  0
 11 28  1  0
 12 22  4  0
 13 15  1  0
 13 19  1  0
 14 20  4  0
 14 28  4  0
 16 29  4  0
 17 31  4  0
 17 33  4  0
 20 34  4  0
 21 32  1  0
 22 23  4  0
 23 25  4  0
 24 30  4  0
 26 34  1  0
 27 30  4  0
 27 33  4  0
 29 31  4  0
M  END
$$$$

 Created by Python create_sdf_string function

 34 38  0  0  0  0  0  0  0  0999 V2000
    9.5836   -1.5944   25.8232 C   0  0  0  0  0  0  0  0  0  0  0  0
   10.0732   -2.9037   25.9508 C   0  0  0  0  0  0  0  0  0  0  0  0
    9.6663   -6.2457   19.1476 C   0  0  0  0  0  0  0  0  0  0  0  0
    3.0889  -10.7850   18.6255 C   0  0  0  0  0  0  0  0  0  0  0  0
    8.0998   -5.3483   16.1006 O   0  0  0  0  0  0  0  0  0  0  0  0
    8.4321   -8.5347   15.1410 C   0  0  0  0  0  0  0  0  0  0  0  0
    2.8907  -11.6459   19.5321 N   0  0  0  0  0  0  0  0  0  0  0  0
   10.7610   -3.7085   22.4298 O   0  0  0  0  0  0  0  0  0  0  0  0
   10.3398   -5.6172   20.1968 C   0  0  0  0  0  0  0  0  0  0  0  0
    8.4134   -6.0148   17.0606 C   0  0  0  0  0  0  0  0  0  0  0  0
   10.4465   -3.6248   24.8383 C   0  0  0  0  0  0  0  0  0  0  0  0
    7.8413   -7.3662   17.1915 N   0  0  0  0  0  0  0  0  0  0  0  0
    9.6191   -4.2345   18.0247 C   0  0  0  0  0  0  0  0  0  0  0  0
    6.4300   -7.6011   17.2571 C   0  0  0  0  0  0  0  0  0  0  0  0
    4.3161  -10.2420   18.3302 C   0  0  0  0  0  0  0  0  0  0  0  0
    2.2141   -9.3779   16.9391 C   0  0  0  0  0  0  0  0  0  0  0  0
   10.1772   -3.3966   27.1963 F   0  0  0  0  0  0  0  0  0  0  0  0
    8.7108   -8.3730   16.5787 C   0  0  0  0  0  0  0  0  0  0  0  0
   10.2484   -3.6242   18.9709 N   0  0  0  0  0  0  0  0  0  0  0  0
    6.8541   -8.5905   14.8281 C   0  0  0  0  0  0  0  0  0  0  0  0
   10.5557   -3.0673   23.5767 C   0  0  0  0  0  0  0  0  0  0  0  0
    9.9435   -1.8655   23.3949 C   0  0  0  0  0  0  0  0  0  0  0  0
    1.6672  -12.0076   19.8902 C   0  0  0  0  0  0  0  0  0  0  0  0
    9.5920   -1.0116   24.5176 C   0  0  0  0  0  0  0  0  0  0  0  0
   11.2218   -3.5437   21.2155 C   0  0  0  0  0  0  0  0  0  0  0  0
    0.7554  -10.8038   18.1399 N   0  0  0  0  0  0  0  0  0  0  0  0
    9.2973   -5.5115   18.0493 C   0  0  0  0  0  0  0  0  0  0  0  0
    4.5576   -9.3781   17.3822 C   0  0  0  0  0  0  0  0  0  0  0  0
    0.6342  -11.6060   19.1486 C   0  0  0  0  0  0  0  0  0  0  0  0
    3.4536   -8.8159   16.6672 C   0  0  0  0  0  0  0  0  0  0  0  0
    6.2265   -9.3995   15.7012 O   0  0  0  0  0  0  0  0  0  0  0  0
    2.0115  -10.3283   17.9375 C   0  0  0  0  0  0  0  0  0  0  0  0
   10.6313   -4.3192   20.1843 C   0  0  0  0  0  0  0  0  0  0  0  0
    5.9633   -8.9379   17.1351 He  0  0  0  0  0  0  0  0  0  0  0  0
  1  2  4  0
  1 24  4  0
  2 11  4  0
  2 17  1  0
  3  9  4  0
  3 27  4  0
  4  7  4  0
  4 15  4  0
  4 22  1  0
  4 32  4  0
  5 10  2  0
  6 13  1  0
  6 18  1  0
  6 20  1  0
  7 23  4  0
  8 21  1  0
  8 25  2  0
  9 33  4  0
 10 12  1  0
 10 27  1  0
 11 21  4  0
 12 14  1  0
 12 18  1  0
 13 19  4  0
 13 27  2  0
 15 28  4  0
 16 30  4  0
 16 32  4  0
 19 33  4  0
 20 31  1  0
 21 22  4  0
 22 24  4  0
 22 29  3  0
 23 29  4  0
 25 33  1  0
 26 29  4  0
 26 32  4  0
 28 30  4  0
M  END
$$$$

 Created by Python create_sdf_string function

 34 38  0  0  0  0  0  0  0  0999 V2000
    9.5960   -1.5844   25.7893 C   0  0  0  0  0  0  0  0  0  0  0  0
   10.0769   -2.9039   25.9401 C   0  0  0  0  0  0  0  0  0  0  0  0
    9.6714   -6.2298   19.1294 C   0  0  0  0  0  0  0  0  0  0  0  0
    3.0842  -10.7621   18.6238 C   0  0  0  0  0  0  0  0  0  0  0  0
    8.1189   -5.3518   16.1222 O   0  0  0  0  0  0  0  0  0  0  0  0
    8.3847   -8.5486   15.1183 C   0  0  0  0  0  0  0  0  0  0  0  0
    2.8843  -11.6769   19.6054 N   0  0  0  0  0  0  0  0  0  0  0  0
   10.7952   -3.7093   22.4297 O   0  0  0  0  0  0  0  0  0  0  0  0
   10.3482   -5.6365   20.1756 C   0  0  0  0  0  0  0  0  0  0  0  0
    5.9515   -8.9628   17.0874 C   0  0  0  0  0  0  0  0  0  0  0  0
    8.3797   -6.0629   17.0525 C   0  0  0  0  0  0  0  0  0  0  0  0
   10.4699   -3.6081   24.8319 C   0  0  0  0  0  0  0  0  0  0  0  0
    7.8532   -7.3264   17.1608 N   0  0  0  0  0  0  0  0  0  0  0  0
    9.6371   -4.1948   18.0051 C   0  0  0  0  0  0  0  0  0  0  0  0
    6.4550   -7.5941   17.2577 C   0  0  0  0  0  0  0  0  0  0  0  0
    4.3445  -10.2678   18.3208 C   0  0  0  0  0  0  0  0  0  0  0  0
    2.2154   -9.3704   16.9477 C   0  0  0  0  0  0  0  0  0  0  0  0
   10.1610   -3.3948   27.1468 F   0  0  0  0  0  0  0  0  0  0  0  0
    8.7043   -8.3663   16.5868 C   0  0  0  0  0  0  0  0  0  0  0  0
   10.2834   -3.6126   19.0032 N   0  0  0  0  0  0  0  0  0  0  0  0
    6.8808   -8.5579   14.8578 C   0  0  0  0  0  0  0  0  0  0  0  0
   10.4655   -3.0358   23.5775 C   0  0  0  0  0  0  0  0  0  0  0  0
    9.9527   -1.7660   23.4077 C   0  0  0  0  0  0  0  0  0  0  0  0
    1.6737  -12.0497   19.8895 C   0  0  0  0  0  0  0  0  0  0  0  0
    9.5652   -1.0114   24.5042 C   0  0  0  0  0  0  0  0  0  0  0  0
   11.1577   -3.5790   21.2348 C   0  0  0  0  0  0  0  0  0  0  0  0
    0.7874  -10.8069   18.1892 N   0  0  0  0  0  0  0  0  0  0  0  0
    9.2356   -5.5193   18.0565 C   0  0  0  0  0  0  0  0  0  0  0  0
    4.5542   -9.3623   17.3752 C   0  0  0  0  0  0  0  0  0  0  0  0
    0.6320  -11.6323   19.1673 C   0  0  0  0  0  0  0  0  0  0  0  0
    3.4841   -8.8819   16.7037 C   0  0  0  0  0  0  0  0  0  0  0  0
    6.2205   -9.3920   15.7542 O   0  0  0  0  0  0  0  0  0  0  0  0
    2.0002  -10.3182   17.9157 C   0  0  0  0  0  0  0  0  0  0  0  0
   10.5926   -4.2937   20.1351 C   0  0  0  0  0  0  0  0  0  0  0  0
  1  2  4  0
  1 25  4  0
  2 12  4  0
  2 18  1  0
  3  9  4  0
  3 28  4  0
  4  7  4  0
  4 16  4  0
  4 33  4  0
  5 11  2  0
  6 19  1  0
  6 21  1  0
  7 24  4  0
  8 22  1  0
  8 26  2  0
  9 34  4  0
 10 15  1  0
 10 29  1  0
 10 32  1  0
 11 13  1  0
 11 28  1  0
 12 22  4  0
 13 15  1  0
 13 19  1  0
 14 20  4  0
 14 28  4  0
 16 29  4  0
 17 31  4  0
 17 33  4  0
 20 34  4  0
 21 32  1  0
 22 23  4  0
 23 25  4  0
 24 30  4  0
 26 34  1  0
 27 30  4  0
 27 33  4  0
 29 31  4  0
M  END
$$$$

 Created by Python create_sdf_string function

 34 41  0  0  0  0  0  0  0  0999 V2000
    9.5906   -1.5877   25.7905 C   0  0  0  0  0  0  0  0  0  0  0  0
   10.0299   -2.8704   25.9184 C   0  0  0  0  0  0  0  0  0  0  0  0
    9.7238   -6.2212   19.2042 C   0  0  0  0  0  0  0  0  0  0  0  0
    3.1014  -10.7403   18.6036 C   0  0  0  0  0  0  0  0  0  0  0  0
    8.1028   -5.3224   16.0598 O   0  0  0  0  0  0  0  0  0  0  0  0
    8.3963   -8.5748   15.1254 C   0  0  0  0  0  0  0  0  0  0  0  0
    2.9103  -11.7550   19.6244 N   0  0  0  0  0  0  0  0  0  0  0  0
   10.8345   -3.7722   22.4579 O   0  0  0  0  0  0  0  0  0  0  0  0
   10.2973   -5.5925   20.1982 C   0  0  0  0  0  0  0  0  0  0  0  0
    5.9645   -9.0026   17.1022 C   0  0  0  0  0  0  0  0  0  0  0  0
    8.3693   -6.0578   17.0860 C   0  0  0  0  0  0  0  0  0  0  0  0
   10.5165   -3.5508   24.7543 C   0  0  0  0  0  0  0  0  0  0  0  0
    7.8867   -7.3389   17.2098 N   0  0  0  0  0  0  0  0  0  0  0  0
    9.6224   -4.2071   17.9617 C   0  0  0  0  0  0  0  0  0  0  0  0
    6.4808   -7.6252   17.2371 C   0  0  0  0  0  0  0  0  0  0  0  0
    4.3560  -10.2099   18.3244 C   0  0  0  0  0  0  0  0  0  0  0  0
    2.2133   -9.3696   17.0115 C   0  0  0  0  0  0  0  0  0  0  0  0
   10.1747   -3.3833   27.1643 F   0  0  0  0  0  0  0  0  0  0  0  0
    8.7076   -8.3411   16.5572 C   0  0  0  0  0  0  0  0  0  0  0  0
   10.3197   -3.6475   19.0173 N   0  0  0  0  0  0  0  0  0  0  0  0
    6.8679   -8.5242   14.8223 C   0  0  0  0  0  0  0  0  0  0  0  0
   10.4525   -3.0607   23.6002 C   0  0  0  0  0  0  0  0  0  0  0  0
    9.9266   -1.7366   23.4094 C   0  0  0  0  0  0  0  0  0  0  0  0
    1.7020  -12.0297   19.9013 C   0  0  0  0  0  0  0  0  0  0  0  0
    9.5389   -1.0116   24.4948 C   0  0  0  0  0  0  0  0  0  0  0  0
   11.1564   -3.5774   21.2186 C   0  0  0  0  0  0  0  0  0  0  0  0
    0.8014  -10.8490   18.2159 N   0  0  0  0  0  0  0  0  0  0  0  0
    9.2383   -5.4918   18.0430 C   0  0  0  0  0  0  0  0  0  0  0  0
    4.6162   -9.3104   17.3954 C   0  0  0  0  0  0  0  0  0  0  0  0
    0.6298  -11.6601   19.1915 C   0  0  0  0  0  0  0  0  0  0  0  0
    3.4386   -8.8877   16.7696 C   0  0  0  0  0  0  0  0  0  0  0  0
    6.2529   -9.3859   15.7561 O   0  0  0  0  0  0  0  0  0  0  0  0
    1.9997  -10.3451   17.9469 C   0  0  0  0  0  0  0  0  0  0  0  0
   10.6205   -4.3032   20.1817 C   0  0  0  0  0  0  0  0  0  0  0  0
  1  2  4  0
  1 25  4  0
  2 12  4  0
  2 18  1  0
  3  9  4  0
  4  7  4  0
  4 16  4  0
  4 33  4  0
  6 19  1  0
  6 21  1  0
  7 24  4  0
  8 22  1  0
  8 26  2  0
  9 22  1  0
  9 24  2  0
 10 15  1  0
 10 29  1  0
 10 32  1  0
 11 13  1  0
 11 28  1  0
 12 15  3  0
 12 22  4  0
 13 15  1  0
 13 19  1  0
 14 20  4  0
 14 28  4  0
 16 17  1  0
 16 29  4  0
 17 25  4  0
 17 31  4  0
 17 33  4  0
 20 21  3  0
 20 34  4  0
 21 32  1  0
 22 23  4  0
 23 25  1  0
 24 30  4  0
 26 34  1  0
 27 30  4  0
 27 33  4  0
 29 31  4  0
M  END
$$$$

 Created by Python create_sdf_string function

 34 38  0  0  0  0  0  0  0  0999 V2000
    9.5777   -1.5658   25.7710 C   0  0  0  0  0  0  0  0  0  0  0  0
   10.0644   -2.8635   25.9242 C   0  0  0  0  0  0  0  0  0  0  0  0
    9.6725   -6.2299   19.1489 C   0  0  0  0  0  0  0  0  0  0  0  0
    3.1201  -10.7749   18.6522 C   0  0  0  0  0  0  0  0  0  0  0  0
    8.1156   -5.3424   16.1047 O   0  0  0  0  0  0  0  0  0  0  0  0
    8.3743   -8.5710   15.1206 C   0  0  0  0  0  0  0  0  0  0  0  0
    2.9294  -11.7023   19.6242 N   0  0  0  0  0  0  0  0  0  0  0  0
   10.8103   -3.7141   22.4617 O   0  0  0  0  0  0  0  0  0  0  0  0
   10.3274   -5.6239   20.1936 C   0  0  0  0  0  0  0  0  0  0  0  0
    5.9689   -8.9717   17.0954 C   0  0  0  0  0  0  0  0  0  0  0  0
    8.3669   -6.0585   17.0488 C   0  0  0  0  0  0  0  0  0  0  0  0
   10.4972   -3.5713   24.8225 C   0  0  0  0  0  0  0  0  0  0  0  0
    7.8634   -7.3206   17.1495 N   0  0  0  0  0  0  0  0  0  0  0  0
    9.6470   -4.1860   17.9812 C   0  0  0  0  0  0  0  0  0  0  0  0
    6.4741   -7.5982   17.2587 C   0  0  0  0  0  0  0  0  0  0  0  0
    4.3662  -10.2647   18.3364 C   0  0  0  0  0  0  0  0  0  0  0  0
    2.2235   -9.3745   17.0078 C   0  0  0  0  0  0  0  0  0  0  0  0
   10.1487   -3.3744   27.1210 F   0  0  0  0  0  0  0  0  0  0  0  0
    8.7252   -8.3497   16.5694 C   0  0  0  0  0  0  0  0  0  0  0  0
   10.3157   -3.6089   18.9996 N   0  0  0  0  0  0  0  0  0  0  0  0
    6.8837   -8.5343   14.8403 C   0  0  0  0  0  0  0  0  0  0  0  0
   10.4256   -2.9831   23.5913 C   0  0  0  0  0  0  0  0  0  0  0  0
    9.9345   -1.7017   23.4051 C   0  0  0  0  0  0  0  0  0  0  0  0
    1.7156  -12.0952   19.9155 C   0  0  0  0  0  0  0  0  0  0  0  0
    9.5142   -0.9850   24.5161 C   0  0  0  0  0  0  0  0  0  0  0  0
   11.1223   -3.5742   21.2242 C   0  0  0  0  0  0  0  0  0  0  0  0
    0.8171  -10.8422   18.2449 N   0  0  0  0  0  0  0  0  0  0  0  0
    9.2395   -5.5154   18.0758 C   0  0  0  0  0  0  0  0  0  0  0  0
    4.5738   -9.3599   17.4000 C   0  0  0  0  0  0  0  0  0  0  0  0
    0.6482  -11.6878   19.2139 C   0  0  0  0  0  0  0  0  0  0  0  0
    3.4704   -8.9023   16.7637 C   0  0  0  0  0  0  0  0  0  0  0  0
    6.2301   -9.3908   15.7582 O   0  0  0  0  0  0  0  0  0  0  0  0
    2.0064  -10.3352   17.9604 C   0  0  0  0  0  0  0  0  0  0  0  0
   10.5776   -4.2943   20.1317 C   0  0  0  0  0  0  0  0  0  0  0  0
  1  2  4  0
  1 25  4  0
  2 12  4  0
  2 18  1  0
  3  9  4  0
  3 28  4  0
  4  7  4  0
  4 16  4  0
  4 33  4  0
  5 11  2  0
  6 19  1  0
  6 21  1  0
  7 24  4  0
  8 22  1  0
  8 26  2  0
  9 34  4  0
 10 15  1  0
 10 29  1  0
 10 32  1  0
 11 13  1  0
 11 28  1  0
 12 22  4  0
 13 15  1  0
 13 19  1  0
 14 20  4  0
 14 28  4  0
 16 29  4  0
 17 31  4  0
 17 33  4  0
 20 34  4  0
 21 32  1  0
 22 23  4  0
 23 25  4  0
 24 30  4  0
 26 34  1  0
 27 30  4  0
 27 33  4  0
 29 31  4  0
M  END
$$$$

 Created by Python create_sdf_string function

 34 40  0  0  0  0  0  0  0  0999 V2000
    9.5998   -1.5787   25.7522 C   0  0  0  0  0  0  0  0  0  0  0  0
   10.0446   -2.8977   25.9248 C   0  0  0  0  0  0  0  0  0  0  0  0
    9.6933   -6.2478   19.1609 C   0  0  0  0  0  0  0  0  0  0  0  0
    3.1311  -10.8001   18.7080 C   0  0  0  0  0  0  0  0  0  0  0  0
    8.0820   -5.3171   16.2026 O   0  0  0  0  0  0  0  0  0  0  0  0
    8.4102   -8.5679   15.1035 C   0  0  0  0  0  0  0  0  0  0  0  0
    2.9157  -11.7273   19.6077 N   0  0  0  0  0  0  0  0  0  0  0  0
   10.8317   -3.6960   22.4445 O   0  0  0  0  0  0  0  0  0  0  0  0
   10.3041   -5.6270   20.1854 C   0  0  0  0  0  0  0  0  0  0  0  0
    5.9928   -8.9377   17.1315 C   0  0  0  0  0  0  0  0  0  0  0  0
    8.3891   -5.9796   17.0816 C   0  0  0  0  0  0  0  0  0  0  0  0
   10.4810   -3.5788   24.8064 C   0  0  0  0  0  0  0  0  0  0  0  0
    7.8849   -7.3189   17.1496 N   0  0  0  0  0  0  0  0  0  0  0  0
    9.6081   -4.1685   17.9956 C   0  0  0  0  0  0  0  0  0  0  0  0
    6.4884   -7.6410   17.2815 C   0  0  0  0  0  0  0  0  0  0  0  0
    4.3755  -10.2560   18.3006 C   0  0  0  0  0  0  0  0  0  0  0  0
    2.2227   -9.3988   17.0406 C   0  0  0  0  0  0  0  0  0  0  0  0
   10.1282   -3.3479   27.1312 F   0  0  0  0  0  0  0  0  0  0  0  0
    8.7014   -8.3128   16.5492 C   0  0  0  0  0  0  0  0  0  0  0  0
   10.3245   -3.6174   18.9919 N   0  0  0  0  0  0  0  0  0  0  0  0
    6.8288   -8.5133   14.8198 C   0  0  0  0  0  0  0  0  0  0  0  0
   10.3909   -3.0026   23.5839 C   0  0  0  0  0  0  0  0  0  0  0  0
   10.0305   -1.6409   23.4275 C   0  0  0  0  0  0  0  0  0  0  0  0
    1.7647  -12.1372   19.8502 C   0  0  0  0  0  0  0  0  0  0  0  0
    9.4949   -0.9723   24.5134 C   0  0  0  0  0  0  0  0  0  0  0  0
   11.1349   -3.5449   21.1592 C   0  0  0  0  0  0  0  0  0  0  0  0
    0.8271  -10.9090   18.2834 N   0  0  0  0  0  0  0  0  0  0  0  0
    9.2598   -5.4915   18.0872 C   0  0  0  0  0  0  0  0  0  0  0  0
    4.5292   -9.3497   17.3880 C   0  0  0  0  0  0  0  0  0  0  0  0
    0.6566  -11.6912   19.2564 C   0  0  0  0  0  0  0  0  0  0  0  0
    3.4920   -8.9049   16.7117 C   0  0  0  0  0  0  0  0  0  0  0  0
    6.1889   -9.3734   15.8188 O   0  0  0  0  0  0  0  0  0  0  0  0
    2.0135  -10.3348   17.9882 C   0  0  0  0  0  0  0  0  0  0  0  0
   10.6052   -4.2787   20.1272 F   0  0  0  0  0  0  0  0  0  0  0  0
  1  2  4  0
  1 25  4  0
  2 12  4  0
  2 18  1  0
  3  9  4  0
  3 14  4  0
  3 28  4  0
  4  7  4  0
  4 16  4  0
  4 33  4  0
  5 11  2  0
  6 19  1  0
  6 21  1  0
  7 24  4  0
  8 22  1  0
  8 26  2  0
  9 34  4  0
 10 15  1  0
 10 27  3  0
 10 29  1  0
 10 32  1  0
 11 13  1  0
 11 28  1  0
 12 22  4  0
 13 15  1  0
 13 19  1  0
 14 20  4  0
 14 28  4  0
 16 29  4  0
 17 33  4  0
 20 34  4  0
 21 32  1  0
 22 23  4  0
 23 25  4  0
 24 30  4  0
 26 34  1  0
 27 30  4  0
 27 33  4  0
 29 31  4  0
 31 34  4  0
M  END
$$$$

 Created by Python create_sdf_string function

 34 38  0  0  0  0  0  0  0  0999 V2000
    9.5789   -1.5641   25.7638 C   0  0  0  0  0  0  0  0  0  0  0  0
   10.0528   -2.8686   25.9039 C   0  0  0  0  0  0  0  0  0  0  0  0
    9.6743   -6.2233   19.1417 C   0  0  0  0  0  0  0  0  0  0  0  0
    3.1271  -10.8033   18.6809 C   0  0  0  0  0  0  0  0  0  0  0  0
    8.0830   -5.3036   16.1864 O   0  0  0  0  0  0  0  0  0  0  0  0
    8.3603   -8.5749   15.1066 C   0  0  0  0  0  0  0  0  0  0  0  0
    2.9433  -11.7445   19.6414 N   0  0  0  0  0  0  0  0  0  0  0  0
   10.8038   -3.6416   22.4164 O   0  0  0  0  0  0  0  0  0  0  0  0
   10.3364   -5.6260   20.1917 C   0  0  0  0  0  0  0  0  0  0  0  0
    5.9763   -8.9499   17.1313 C   0  0  0  0  0  0  0  0  0  0  0  0
    8.3648   -6.0363   17.0723 C   0  0  0  0  0  0  0  0  0  0  0  0
   10.4640   -3.5617   24.7947 C   0  0  0  0  0  0  0  0  0  0  0  0
    7.8703   -7.2943   17.1135 N   0  0  0  0  0  0  0  0  0  0  0  0
    9.6352   -4.1751   18.0087 C   0  0  0  0  0  0  0  0  0  0  0  0
    6.5086   -7.6034   17.2893 C   0  0  0  0  0  0  0  0  0  0  0  0
    4.3785  -10.2918   18.3579 C   0  0  0  0  0  0  0  0  0  0  0  0
    2.2122   -9.4023   17.0357 C   0  0  0  0  0  0  0  0  0  0  0  0
   10.1189   -3.3587   27.1022 F   0  0  0  0  0  0  0  0  0  0  0  0
    8.7169   -8.3197   16.5466 C   0  0  0  0  0  0  0  0  0  0  0  0
   10.3163   -3.6000   18.9925 N   0  0  0  0  0  0  0  0  0  0  0  0
    6.8507   -8.5413   14.8597 C   0  0  0  0  0  0  0  0  0  0  0  0
   10.4179   -2.9600   23.5669 C   0  0  0  0  0  0  0  0  0  0  0  0
   10.0018   -1.6383   23.4141 C   0  0  0  0  0  0  0  0  0  0  0  0
    1.7508  -12.1755   19.9016 C   0  0  0  0  0  0  0  0  0  0  0  0
    9.5194   -0.9590   24.5154 C   0  0  0  0  0  0  0  0  0  0  0  0
   11.1104   -3.5676   21.1976 C   0  0  0  0  0  0  0  0  0  0  0  0
    0.8375  -10.8684   18.3079 N   0  0  0  0  0  0  0  0  0  0  0  0
    9.2340   -5.4998   18.0808 C   0  0  0  0  0  0  0  0  0  0  0  0
    4.5562   -9.3901   17.4083 C   0  0  0  0  0  0  0  0  0  0  0  0
    0.6742  -11.7282   19.2591 C   0  0  0  0  0  0  0  0  0  0  0  0
    3.4579   -8.9311   16.7430 C   0  0  0  0  0  0  0  0  0  0  0  0
    6.2021   -9.3616   15.7971 O   0  0  0  0  0  0  0  0  0  0  0  0
    2.0243  -10.3569   17.9988 C   0  0  0  0  0  0  0  0  0  0  0  0
   10.5825   -4.2845   20.1197 C   0  0  0  0  0  0  0  0  0  0  0  0
  1  2  4  0
  1 25  4  0
  2 12  4  0
  2 18  1  0
  3  9  4  0
  3 28  4  0
  4  7  4  0
  4 16  4  0
  4 33  4  0
  5 11  2  0
  6 19  1  0
  6 21  1  0
  7 24  4  0
  8 22  1  0
  8 26  2  0
  9 34  4  0
 10 15  1  0
 10 29  1  0
 10 32  1  0
 11 13  1  0
 11 28  1  0
 12 22  4  0
 13 15  1  0
 13 19  1  0
 14 20  4  0
 14 28  4  0
 16 29  4  0
 17 31  4  0
 17 33  4  0
 20 34  4  0
 21 32  1  0
 22 23  4  0
 23 25  4  0
 24 30  4  0
 26 34  1  0
 27 30  4  0
 27 33  4  0
 29 31  4  0
M  END
$$$$

 Created by Python create_sdf_string function

 34 37  0  0  0  0  0  0  0  0999 V2000
    9.5770   -1.5672   25.7700 C   0  0  0  0  0  0  0  0  0  0  0  0
   10.0399   -2.8268   25.8913 C   0  0  0  0  0  0  0  0  0  0  0  0
    9.6727   -6.2328   19.1064 C   0  0  0  0  0  0  0  0  0  0  0  0
    3.0982  -10.8421   18.6555 C   0  0  0  0  0  0  0  0  0  0  0  0
    8.1083   -5.2857   16.1833 O   0  0  0  0  0  0  0  0  0  0  0  0
    8.3531   -8.6054   15.0930 C   0  0  0  0  0  0  0  0  0  0  0  0
    2.9112  -11.6927   19.6539 N   0  0  0  0  0  0  0  0  0  0  0  0
   10.8144   -3.6266   22.3427 O   0  0  0  0  0  0  0  0  0  0  0  0
   10.3532   -5.5823   20.1665 C   0  0  0  0  0  0  0  0  0  0  0  0
    6.0005   -9.0110   17.1055 C   0  0  0  0  0  0  0  0  0  0  0  0
   10.4510   -3.5522   24.8105 C   0  0  0  0  0  0  0  0  0  0  0  0
    7.9042   -7.2618   17.0986 N   0  0  0  0  0  0  0  0  0  0  0  0
    9.6712   -4.1283   17.9833 C   0  0  0  0  0  0  0  0  0  0  0  0
    6.5406   -7.6021   17.2733 F   0  0  0  0  0  0  0  0  0  0  0  0
    4.3774  -10.3018   18.3907 C   0  0  0  0  0  0  0  0  0  0  0  0
    2.2087   -9.4250   17.0550 C   0  0  0  0  0  0  0  0  0  0  0  0
   10.1077   -3.3754   27.0670 F   0  0  0  0  0  0  0  0  0  0  0  0
    8.7284   -8.3379   16.5394 C   0  0  0  0  0  0  0  0  0  0  0  0
    6.7932   -8.5920   14.8427 C   0  0  0  0  0  0  0  0  0  0  0  0
   10.4244   -2.9997   23.5824 C   0  0  0  0  0  0  0  0  0  0  0  0
   10.0102   -1.6517   23.4222 C   0  0  0  0  0  0  0  0  0  0  0  0
    1.7719  -12.1719   19.8966 C   0  0  0  0  0  0  0  0  0  0  0  0
    9.5118   -0.9948   24.5371 C   0  0  0  0  0  0  0  0  0  0  0  0
   11.1474   -3.5495   21.1850 C   0  0  0  0  0  0  0  0  0  0  0  0
    0.8919  -10.8664   18.2614 N   0  0  0  0  0  0  0  0  0  0  0  0
    9.2222   -5.5225   18.1287 C   0  0  0  0  0  0  0  0  0  0  0  0
    4.5408   -9.3718   17.4030 C   0  0  0  0  0  0  0  0  0  0  0  0
    0.6452  -11.6844   19.2356 C   0  0  0  0  0  0  0  0  0  0  0  0
    3.4931   -8.9556   16.6993 C   0  0  0  0  0  0  0  0  0  0  0  0
    6.1404   -9.3289   15.7807 O   0  0  0  0  0  0  0  0  0  0  0  0
    2.0138  -10.3519   17.9837 C   0  0  0  0  0  0  0  0  0  0  0  0
   10.5249   -4.3146   20.0884 C   0  0  0  0  0  0  0  0  0  0  0  0
    8.3494   -6.0164   17.0851 He  0  0  0  0  0  0  0  0  0  0  0  0
   10.3381   -3.5734   19.0119 He  0  0  0  0  0  0  0  0  0  0  0  0
  1  2  4  0
  1 23  4  0
  2 11  4  0
  2 17  1  0
  3  9  4  0
  3 26  4  0
  4  7  4  0
  4  9  4  0
  4 15  4  0
  4 31  4  0
  6 17  4  0
  6 18  1  0
  7 19  1  0
  7 22  4  0
  8 20  1  0
  8 24  2  0
  9 32  4  0
 10 14  1  0
 10 27  1  0
 10 30  1  0
 11 20  4  0
 12 14  1  0
 12 18  1  0
 13 26  4  0
 15 27  4  0
 16 18  1  0
 16 29  4  0
 16 31  4  0
 19 30  1  0
 20 21  4  0
 21 23  4  0
 22 28  4  0
 24 25  3  0
 24 32  1  0
 25 28  4  0
 25 31  4  0
 27 29  4  0
M  END
$$$$

 Created by Python create_sdf_string function

 34 38  0  0  0  0  0  0  0  0999 V2000
    9.5626   -1.5455   25.7694 C   0  0  0  0  0  0  0  0  0  0  0  0
   10.0415   -2.8406   25.8904 C   0  0  0  0  0  0  0  0  0  0  0  0
    9.6640   -6.2118   19.1145 C   0  0  0  0  0  0  0  0  0  0  0  0
    3.1301  -10.8226   18.6998 C   0  0  0  0  0  0  0  0  0  0  0  0
    8.0888   -5.2840   16.1613 O   0  0  0  0  0  0  0  0  0  0  0  0
    8.3118   -8.5978   15.1073 C   0  0  0  0  0  0  0  0  0  0  0  0
    2.9425  -11.7430   19.6676 N   0  0  0  0  0  0  0  0  0  0  0  0
   10.7773   -3.5937   22.3864 O   0  0  0  0  0  0  0  0  0  0  0  0
   10.3418   -5.5997   20.1608 C   0  0  0  0  0  0  0  0  0  0  0  0
    5.9760   -8.9895   17.1270 C   0  0  0  0  0  0  0  0  0  0  0  0
    8.3615   -6.0381   17.0595 C   0  0  0  0  0  0  0  0  0  0  0  0
   10.4523   -3.5424   24.7952 C   0  0  0  0  0  0  0  0  0  0  0  0
    7.8826   -7.2779   17.0930 N   0  0  0  0  0  0  0  0  0  0  0  0
    9.6433   -4.1411   17.9647 C   0  0  0  0  0  0  0  0  0  0  0  0
    6.5456   -7.6241   17.2812 C   0  0  0  0  0  0  0  0  0  0  0  0
    4.3761  -10.3153   18.3779 C   0  0  0  0  0  0  0  0  0  0  0  0
    2.2215   -9.4223   17.0183 C   0  0  0  0  0  0  0  0  0  0  0  0
   10.0993   -3.3734   27.0610 F   0  0  0  0  0  0  0  0  0  0  0  0
    8.7005   -8.3370   16.5406 C   0  0  0  0  0  0  0  0  0  0  0  0
   10.3146   -3.5589   18.9829 N   0  0  0  0  0  0  0  0  0  0  0  0
    6.8183   -8.5736   14.8552 C   0  0  0  0  0  0  0  0  0  0  0  0
   10.4177   -2.9317   23.5648 C   0  0  0  0  0  0  0  0  0  0  0  0
    9.9845   -1.6313   23.4111 C   0  0  0  0  0  0  0  0  0  0  0  0
    1.7435  -12.1804   19.9211 C   0  0  0  0  0  0  0  0  0  0  0  0
    9.5191   -0.9474   24.5187 C   0  0  0  0  0  0  0  0  0  0  0  0
   11.1340   -3.5674   21.2011 C   0  0  0  0  0  0  0  0  0  0  0  0
    0.8400  -10.8659   18.2947 N   0  0  0  0  0  0  0  0  0  0  0  0
    9.2387   -5.4736   18.0698 C   0  0  0  0  0  0  0  0  0  0  0  0
    4.5626   -9.4231   17.4229 C   0  0  0  0  0  0  0  0  0  0  0  0
    0.6814  -11.7271   19.2464 C   0  0  0  0  0  0  0  0  0  0  0  0
    3.4775   -8.9730   16.7417 C   0  0  0  0  0  0  0  0  0  0  0  0
    6.1404   -9.3368   15.7718 O   0  0  0  0  0  0  0  0  0  0  0  0
    2.0397  -10.3665   17.9926 C   0  0  0  0  0  0  0  0  0  0  0  0
   10.5745   -4.2677   20.0955 C   0  0  0  0  0  0  0  0  0  0  0  0
  1  2  4  0
  1 25  4  0
  2 12  4  0
  2 18  1  0
  3  9  4  0
  3 28  4  0
  4  7  4  0
  4 16  4  0
  4 33  4  0
  5 11  2  0
  6 19  1  0
  6 21  1  0
  7 24  4  0
  8 22  1  0
  8 26  2  0
  9 34  4  0
 10 15  1  0
 10 29  1  0
 10 32  1  0
 11 13  1  0
 11 28  1  0
 12 22  4  0
 13 15  1  0
 13 19  1  0
 14 20  4  0
 14 28  4  0
 16 29  4  0
 17 31  4  0
 17 33  4  0
 20 34  4  0
 21 32  1  0
 22 23  4  0
 23 25  4  0
 24 30  4  0
 26 34  1  0
 27 30  4  0
 27 33  4  0
 29 31  4  0
M  END
$$$$

 Created by Python create_sdf_string function

 34 41  0  0  0  0  0  0  0  0999 V2000
    9.5358   -1.5554   25.7867 C   0  0  0  0  0  0  0  0  0  0  0  0
   10.0607   -2.8512   25.8686 C   0  0  0  0  0  0  0  0  0  0  0  0
    9.6737   -6.2445   19.1566 C   0  0  0  0  0  0  0  0  0  0  0  0
    3.1444  -10.8491   18.7326 C   0  0  0  0  0  0  0  0  0  0  0  0
    8.1045   -5.2850   16.1888 O   0  0  0  0  0  0  0  0  0  0  0  0
    8.3262   -8.6554   15.0802 C   0  0  0  0  0  0  0  0  0  0  0  0
    2.9804  -11.7509   19.6500 N   0  0  0  0  0  0  0  0  0  0  0  0
   10.7327   -3.5758   22.3682 O   0  0  0  0  0  0  0  0  0  0  0  0
   10.3596   -5.5948   20.1520 C   0  0  0  0  0  0  0  0  0  0  0  0
    5.9707   -9.0043   17.1304 C   0  0  0  0  0  0  0  0  0  0  0  0
    8.3605   -6.0628   17.0575 C   0  0  0  0  0  0  0  0  0  0  0  0
   10.4419   -3.5328   24.7399 C   0  0  0  0  0  0  0  0  0  0  0  0
    7.8799   -7.2733   17.1241 N   0  0  0  0  0  0  0  0  0  0  0  0
    9.6389   -4.1193   17.9362 C   0  0  0  0  0  0  0  0  0  0  0  0
    6.5336   -7.6242   17.2593 O   0  0  0  0  0  0  0  0  0  0  0  0
    4.4008  -10.3397   18.3633 C   0  0  0  0  0  0  0  0  0  0  0  0
    2.1879   -9.4189   17.0269 C   0  0  0  0  0  0  0  0  0  0  0  0
   10.1136   -3.3545   27.0760 F   0  0  0  0  0  0  0  0  0  0  0  0
    8.6849   -8.3272   16.5271 C   0  0  0  0  0  0  0  0  0  0  0  0
   10.3584   -3.5732   19.0030 N   0  0  0  0  0  0  0  0  0  0  0  0
    6.7980   -8.5573   14.8676 C   0  0  0  0  0  0  0  0  0  0  0  0
   10.4243   -2.9081   23.5384 C   0  0  0  0  0  0  0  0  0  0  0  0
   10.0087   -1.6158   23.4566 C   0  0  0  0  0  0  0  0  0  0  0  0
    1.7132  -12.1739   19.9714 C   0  0  0  0  0  0  0  0  0  0  0  0
    9.5194   -0.9415   24.5557 C   0  0  0  0  0  0  0  0  0  0  0  0
   11.1124   -3.5514   21.1554 C   0  0  0  0  0  0  0  0  0  0  0  0
    0.8195  -10.8299   18.3005 N   0  0  0  0  0  0  0  0  0  0  0  0
    9.2787   -5.4608   18.0864 C   0  0  0  0  0  0  0  0  0  0  0  0
    4.5548   -9.4834   17.3979 C   0  0  0  0  0  0  0  0  0  0  0  0
    0.6686  -11.7374   19.2162 C   0  0  0  0  0  0  0  0  0  0  0  0
    3.4704   -9.0233   16.7572 C   0  0  0  0  0  0  0  0  0  0  0  0
    6.1006   -9.3305   15.7948 O   0  0  0  0  0  0  0  0  0  0  0  0
    2.0431  -10.3527   18.0033 C   0  0  0  0  0  0  0  0  0  0  0  0
   10.5917   -4.3103   20.1224 C   0  0  0  0  0  0  0  0  0  0  0  0
  1  2  4  0
  1 25  4  0
  2 12  4  0
  2 18  1  0
  3  9  4  0
  3 28  4  0
  4  7  4  0
  4 16  4  0
  4 24  1  0
  4 33  4  0
  5 11  2  0
  6 19  1  0
  6 21  1  0
  7 20  4  0
  7 24  4  0
  8 18  1  0
  8 22  1  0
  8 26  2  0
  9 34  4  0
 10 15  1  0
 10 29  1  0
 11 13  1  0
 11 28  1  0
 12 22  4  0
 13 15  1  0
 13 19  1  0
 14 20  4  0
 14 28  4  0
 16 29  4  0
 17 31  4  0
 17 33  4  0
 18 28  4  0
 20 34  4  0
 21 32  1  0
 22 23  4  0
 23 25  4  0
 24 30  4  0
 26 34  1  0
 27 30  4  0
 27 33  4  0
 29 31  4  0
M  END
$$$$

 Created by Python create_sdf_string function

 34 38  0  0  0  0  0  0  0  0999 V2000
    9.5431   -1.5447   25.7821 C   0  0  0  0  0  0  0  0  0  0  0  0
   10.0477   -2.8487   25.8683 C   0  0  0  0  0  0  0  0  0  0  0  0
    9.6671   -6.2242   19.1154 C   0  0  0  0  0  0  0  0  0  0  0  0
    3.1247  -10.8437   18.7065 C   0  0  0  0  0  0  0  0  0  0  0  0
    8.1090   -5.2938   16.1966 O   0  0  0  0  0  0  0  0  0  0  0  0
    8.2998   -8.6504   15.0936 C   0  0  0  0  0  0  0  0  0  0  0  0
    2.9625  -11.7703   19.6880 N   0  0  0  0  0  0  0  0  0  0  0  0
   10.7422   -3.5309   22.3618 O   0  0  0  0  0  0  0  0  0  0  0  0
   10.3491   -5.6228   20.1395 C   0  0  0  0  0  0  0  0  0  0  0  0
    5.9460   -9.0042   17.1348 C   0  0  0  0  0  0  0  0  0  0  0  0
    8.3723   -6.0393   17.0717 C   0  0  0  0  0  0  0  0  0  0  0  0
   10.4427   -3.5176   24.7441 C   0  0  0  0  0  0  0  0  0  0  0  0
    7.8859   -7.2959   17.0864 N   0  0  0  0  0  0  0  0  0  0  0  0
    9.6471   -4.1299   17.9424 C   0  0  0  0  0  0  0  0  0  0  0  0
    6.5437   -7.6271   17.2652 C   0  0  0  0  0  0  0  0  0  0  0  0
    4.3940  -10.3666   18.3867 C   0  0  0  0  0  0  0  0  0  0  0  0
    2.2125   -9.4357   17.0410 C   0  0  0  0  0  0  0  0  0  0  0  0
   10.1123   -3.3671   27.0482 F   0  0  0  0  0  0  0  0  0  0  0  0
    8.6960   -8.3446   16.5143 C   0  0  0  0  0  0  0  0  0  0  0  0
   10.3288   -3.5672   18.9625 N   0  0  0  0  0  0  0  0  0  0  0  0
    6.8010   -8.5502   14.8788 C   0  0  0  0  0  0  0  0  0  0  0  0
   10.4087   -2.8834   23.5361 C   0  0  0  0  0  0  0  0  0  0  0  0
    9.9850   -1.5738   23.4349 C   0  0  0  0  0  0  0  0  0  0  0  0
    1.7616  -12.1691   19.9478 C   0  0  0  0  0  0  0  0  0  0  0  0
    9.5224   -0.9166   24.5424 C   0  0  0  0  0  0  0  0  0  0  0  0
   11.0929   -3.5669   21.1895 C   0  0  0  0  0  0  0  0  0  0  0  0
    0.8254  -10.8527   18.3232 N   0  0  0  0  0  0  0  0  0  0  0  0
    9.2464   -5.4797   18.0635 C   0  0  0  0  0  0  0  0  0  0  0  0
    4.5488   -9.4836   17.4180 C   0  0  0  0  0  0  0  0  0  0  0  0
    0.6813  -11.7512   19.2547 C   0  0  0  0  0  0  0  0  0  0  0  0
    3.4746   -9.0214   16.7609 C   0  0  0  0  0  0  0  0  0  0  0  0
    6.1137   -9.3207   15.7773 O   0  0  0  0  0  0  0  0  0  0  0  0
    2.0296  -10.3725   18.0182 C   0  0  0  0  0  0  0  0  0  0  0  0
   10.5809   -4.2812   20.0879 C   0  0  0  0  0  0  0  0  0  0  0  0
  1  2  4  0
  1 25  4  0
  2 12  4  0
  2 18  1  0
  3  9  4  0
  3 28  4  0
  4  7  4  0
  4 16  4  0
  4 33  4  0
  5 11  2  0
  6 19  1  0
  6 21  1  0
  7 24  4  0
  8 22  1  0
  8 26  2  0
  9 34  4  0
 10 15  1  0
 10 29  1  0
 10 32  1  0
 11 13  1  0
 11 28  1  0
 12 22  4  0
 13 15  1  0
 13 19  1  0
 14 20  4  0
 14 28  4  0
 16 29  4  0
 17 31  4  0
 17 33  4  0
 20 34  4  0
 21 32  1  0
 22 23  4  0
 23 25  4  0
 24 30  4  0
 26 34  1  0
 27 30  4  0
 27 33  4  0
 29 31  4  0
M  END
$$$$

 Created by Python create_sdf_string function

 34 44  0  0  0  0  0  0  0  0999 V2000
    9.5481   -1.5448   25.7694 C   0  0  0  0  0  0  0  0  0  0  0  0
   10.0675   -2.8273   25.8566 C   0  0  0  0  0  0  0  0  0  0  0  0
    9.6834   -6.2514   19.1025 C   0  0  0  0  0  0  0  0  0  0  0  0
    3.1246  -10.8439   18.7410 C   0  0  0  0  0  0  0  0  0  0  0  0
    8.0958   -5.3074   16.2019 O   0  0  0  0  0  0  0  0  0  0  0  0
    8.3134   -8.6604   15.0628 C   0  0  0  0  0  0  0  0  0  0  0  0
    2.9507  -11.7516   19.6912 N   0  0  0  0  0  0  0  0  0  0  0  0
   10.7374   -3.5522   22.3993 O   0  0  0  0  0  0  0  0  0  0  0  0
   10.3268   -5.6452   20.1279 C   0  0  0  0  0  0  0  0  0  0  0  0
    5.9412   -9.0263   17.1430 C   0  0  0  0  0  0  0  0  0  0  0  0
    8.3980   -6.0446   17.0766 C   0  0  0  0  0  0  0  0  0  0  0  0
   10.4320   -3.5002   24.7206 C   0  0  0  0  0  0  0  0  0  0  0  0
    7.8671   -7.2802   17.1005 N   0  0  0  0  0  0  0  0  0  0  0  0
    9.6706   -4.1210   17.9046 C   0  0  0  0  0  0  0  0  0  0  0  0
    6.5169   -7.6320   17.2822 C   0  0  0  0  0  0  0  0  0  0  0  0
    4.3627  -10.3799   18.3874 C   0  0  0  0  0  0  0  0  0  0  0  0
    2.2130   -9.4497   17.0349 C   0  0  0  0  0  0  0  0  0  0  0  0
   10.0862   -3.3893   27.0713 F   0  0  0  0  0  0  0  0  0  0  0  0
    8.6710   -8.3271   16.4989 C   0  0  0  0  0  0  0  0  0  0  0  0
   10.3447   -3.5610   18.9367 N   0  0  0  0  0  0  0  0  0  0  0  0
    6.7862   -8.5728   14.8764 C   0  0  0  0  0  0  0  0  0  0  0  0
   10.4055   -2.8734   23.5634 C   0  0  0  0  0  0  0  0  0  0  0  0
    9.9695   -1.5552   23.4402 C   0  0  0  0  0  0  0  0  0  0  0  0
    1.7519  -12.1847   19.9624 C   0  0  0  0  0  0  0  0  0  0  0  0
    9.5317   -0.9235   24.5209 C   0  0  0  0  0  0  0  0  0  0  0  0
   11.0869   -3.5865   21.1844 C   0  0  0  0  0  0  0  0  0  0  0  0
    0.8655  -10.8338   18.3147 N   0  0  0  0  0  0  0  0  0  0  0  0
    9.2527   -5.4547   18.0693 C   0  0  0  0  0  0  0  0  0  0  0  0
    4.5419   -9.5049   17.3912 C   0  0  0  0  0  0  0  0  0  0  0  0
    0.6778  -11.7219   19.2706 C   0  0  0  0  0  0  0  0  0  0  0  0
    3.4924   -8.9969   16.7631 C   0  0  0  0  0  0  0  0  0  0  0  0
    6.1199   -9.3006   15.7772 O   0  0  0  0  0  0  0  0  0  0  0  0
    2.0264  -10.3801   18.0225 C   0  0  0  0  0  0  0  0  0  0  0  0
   10.6067   -4.2977   20.0839 C   0  0  0  0  0  0  0  0  0  0  0  0
  1  2  4  0
  1 25  4  0
  2 12  4  0
  2 18  1  0
  3  9  4  0
  3 28  4  0
  4  7  4  0
  4 16  4  0
  4 33  4  0
  5 11  2  0
  5 34  4  0
  6 19  1  0
  6 21  1  0
  7 24  4  0
  7 29  1  0
  8 22  1  0
  8 26  2  0
  9 34  4  0
 10 15  1  0
 10 18  3  0
 10 28  2  0
 10 29  1  0
 10 32  1  0
 11 13  1  0
 11 23  2  0
 11 28  1  0
 12 22  4  0
 13 15  1  0
 13 19  1  0
 14 20  4  0
 14 28  4  0
 16 29  4  0
 17 31  4  0
 17 33  4  0
 20 34  4  0
 21 32  1  0
 22 23  4  0
 23 25  4  0
 24 30  4  0
 26 28  3  0
 26 34  1  0
 27 30  4  0
 27 33  4  0
 29 31  4  0
M  END
$$$$

 Created by Python create_sdf_string function

 34 38  0  0  0  0  0  0  0  0999 V2000
    9.5537   -1.5292   25.7701 C   0  0  0  0  0  0  0  0  0  0  0  0
   10.0456   -2.8310   25.8641 C   0  0  0  0  0  0  0  0  0  0  0  0
    9.6698   -6.2206   19.0820 C   0  0  0  0  0  0  0  0  0  0  0  0
    3.1248  -10.8603   18.7337 C   0  0  0  0  0  0  0  0  0  0  0  0
    8.0941   -5.3033   16.1861 O   0  0  0  0  0  0  0  0  0  0  0  0
    8.2781   -8.6514   15.0844 C   0  0  0  0  0  0  0  0  0  0  0  0
    2.9424  -11.7722   19.7142 N   0  0  0  0  0  0  0  0  0  0  0  0
   10.7311   -3.5050   22.3706 O   0  0  0  0  0  0  0  0  0  0  0  0
   10.3409   -5.6379   20.1275 C   0  0  0  0  0  0  0  0  0  0  0  0
    5.9449   -8.9961   17.1295 C   0  0  0  0  0  0  0  0  0  0  0  0
    8.3656   -6.0455   17.0586 C   0  0  0  0  0  0  0  0  0  0  0  0
   10.4381   -3.4940   24.7329 C   0  0  0  0  0  0  0  0  0  0  0  0
    7.8553   -7.2982   17.0617 N   0  0  0  0  0  0  0  0  0  0  0  0
    9.6721   -4.1412   17.9301 C   0  0  0  0  0  0  0  0  0  0  0  0
    6.5153   -7.6179   17.2872 C   0  0  0  0  0  0  0  0  0  0  0  0
    4.3819  -10.3823   18.3953 C   0  0  0  0  0  0  0  0  0  0  0  0
    2.2270   -9.4567   17.0484 C   0  0  0  0  0  0  0  0  0  0  0  0
   10.0886   -3.3788   27.0403 F   0  0  0  0  0  0  0  0  0  0  0  0
    8.6761   -8.3290   16.4964 C   0  0  0  0  0  0  0  0  0  0  0  0
   10.3361   -3.5743   18.9375 N   0  0  0  0  0  0  0  0  0  0  0  0
    6.7805   -8.5489   14.8754 C   0  0  0  0  0  0  0  0  0  0  0  0
   10.3911   -2.8484   23.5398 C   0  0  0  0  0  0  0  0  0  0  0  0
    9.9645   -1.5432   23.4170 C   0  0  0  0  0  0  0  0  0  0  0  0
    1.7449  -12.1934   19.9741 C   0  0  0  0  0  0  0  0  0  0  0  0
    9.5244   -0.8960   24.5393 C   0  0  0  0  0  0  0  0  0  0  0  0
   11.0721   -3.5955   21.1945 C   0  0  0  0  0  0  0  0  0  0  0  0
    0.8468  -10.8626   18.3506 N   0  0  0  0  0  0  0  0  0  0  0  0
    9.2516   -5.4715   18.0413 C   0  0  0  0  0  0  0  0  0  0  0  0
    4.5469   -9.4922   17.4282 C   0  0  0  0  0  0  0  0  0  0  0  0
    0.6970  -11.7352   19.2874 C   0  0  0  0  0  0  0  0  0  0  0  0
    3.4821   -9.0227   16.7704 C   0  0  0  0  0  0  0  0  0  0  0  0
    6.1160   -9.3044   15.7722 O   0  0  0  0  0  0  0  0  0  0  0  0
    2.0423  -10.3878   18.0344 C   0  0  0  0  0  0  0  0  0  0  0  0
   10.5826   -4.2881   20.0692 C   0  0  0  0  0  0  0  0  0  0  0  0
  1  2  4  0
  1 25  4  0
  2 12  4  0
  2 18  1  0
  3  9  4  0
  3 28  4  0
  4  7  4  0
  4 16  4  0
  4 33  4  0
  5 11  2  0
  6 19  1  0
  6 21  1  0
  7 24  4  0
  8 22  1  0
  8 26  2  0
  9 34  4  0
 10 15  1  0
 10 29  1  0
 10 32  1  0
 11 13  1  0
 11 28  1  0
 12 22  4  0
 13 15  1  0
 13 19  1  0
 14 20  4  0
 14 28  4  0
 16 29  4  0
 17 31  4  0
 17 33  4  0
 20 34  4  0
 21 32  1  0
 22 23  4  0
 23 25  4  0
 24 30  4  0
 26 34  1  0
 27 30  4  0
 27 33  4  0
 29 31  4  0
M  END
$$$$

 Created by Python create_sdf_string function

 34 38  0  0  0  0  0  0  0  0999 V2000
    9.5461   -1.5263   25.7590 C   0  0  0  0  0  0  0  0  0  0  0  0
   10.0684   -2.8514   25.8676 C   0  0  0  0  0  0  0  0  0  0  0  0
    9.6529   -6.2136   19.0934 C   0  0  0  0  0  0  0  0  0  0  0  0
    3.1335  -10.8520   18.7274 C   0  0  0  0  0  0  0  0  0  0  0  0
    8.1148   -5.3036   16.1687 O   0  0  0  0  0  0  0  0  0  0  0  0
    8.2813   -8.6442   15.1043 C   0  0  0  0  0  0  0  0  0  0  0  0
    2.9344  -11.7708   19.7258 N   0  0  0  0  0  0  0  0  0  0  0  0
   10.7032   -3.5028   22.3796 O   0  0  0  0  0  0  0  0  0  0  0  0
   10.3564   -5.6499   20.1341 C   0  0  0  0  0  0  0  0  0  0  0  0
    5.9628   -8.9926   17.1111 C   0  0  0  0  0  0  0  0  0  0  0  0
    8.3844   -6.0376   17.0528 C   0  0  0  0  0  0  0  0  0  0  0  0
   10.4628   -3.4947   24.7491 C   0  0  0  0  0  0  0  0  0  0  0  0
    7.8488   -7.2907   17.0568 N   0  0  0  0  0  0  0  0  0  0  0  0
    9.6711   -4.1433   17.9240 C   0  0  0  0  0  0  0  0  0  0  0  0
    6.4994   -7.6057   17.2975 C   0  0  0  0  0  0  0  0  0  0  0  0
    4.3838  -10.3611   18.3676 C   0  0  0  0  0  0  0  0  0  0  0  0
    2.2303   -9.4478   17.0353 C   0  0  0  0  0  0  0  0  0  0  0  0
   10.0885   -3.3830   27.0367 F   0  0  0  0  0  0  0  0  0  0  0  0
    8.6700   -8.3451   16.4992 C   0  0  0  0  0  0  0  0  0  0  0  0
   10.3703   -3.5733   18.9326 N   0  0  0  0  0  0  0  0  0  0  0  0
    6.7711   -8.5222   14.8786 C   0  0  0  0  0  0  0  0  0  0  0  0
   10.3770   -2.8464   23.5291 C   0  0  0  0  0  0  0  0  0  0  0  0
    9.9870   -1.5640   23.4282 C   0  0  0  0  0  0  0  0  0  0  0  0
    1.7412  -12.2053   19.9812 C   0  0  0  0  0  0  0  0  0  0  0  0
    9.5381   -0.9100   24.5574 C   0  0  0  0  0  0  0  0  0  0  0  0
   11.0464   -3.6183   21.1778 C   0  0  0  0  0  0  0  0  0  0  0  0
    0.8322  -10.8847   18.3494 N   0  0  0  0  0  0  0  0  0  0  0  0
    9.2430   -5.4794   18.0411 C   0  0  0  0  0  0  0  0  0  0  0  0
    4.5406   -9.4895   17.4234 C   0  0  0  0  0  0  0  0  0  0  0  0
    0.6995  -11.7229   19.2717 C   0  0  0  0  0  0  0  0  0  0  0  0
    3.4891   -9.0180   16.7891 C   0  0  0  0  0  0  0  0  0  0  0  0
    6.1139   -9.2809   15.7671 O   0  0  0  0  0  0  0  0  0  0  0  0
    2.0402  -10.3614   18.0188 C   0  0  0  0  0  0  0  0  0  0  0  0
   10.5524   -4.2807   20.0579 C   0  0  0  0  0  0  0  0  0  0  0  0
  1  2  4  0
  1 25  4  0
  2 12  4  0
  2 18  1  0
  3  9  4  0
  4  7  4  0
  4 16  4  0
  4 33  4  0
  5 11  2  0
  6 19  1  0
  6 21  1  0
  7 24  4  0
  8 22  1  0
  8 26  2  0
  9 34  4  0
 10 15  1  0
 10 29  1  0
 10 32  1  0
 11 13  1  0
 11 28  1  0
 12 22  4  0
 13 15  1  0
 13 19  1  0
 13 31  2  0
 14 20  4  0
 14 28  4  0
 16 29  4  0
 17 31  4  0
 17 33  4  0
 20 34  4  0
 21 32  1  0
 22 23  4  0
 23 25  4  0
 24 30  4  0
 26 34  1  0
 27 30  4  0
 27 33  4  0
 29 31  4  0
M  END
$$$$

 Created by Python create_sdf_string function

 34 38  0  0  0  0  0  0  0  0999 V2000
    9.5560   -1.5243   25.7676 C   0  0  0  0  0  0  0  0  0  0  0  0
   10.0489   -2.8277   25.8549 C   0  0  0  0  0  0  0  0  0  0  0  0
    9.6519   -6.2115   19.0763 C   0  0  0  0  0  0  0  0  0  0  0  0
    3.1384  -10.8629   18.7384 C   0  0  0  0  0  0  0  0  0  0  0  0
    8.1112   -5.3013   16.1606 O   0  0  0  0  0  0  0  0  0  0  0  0
    8.2543   -8.6504   15.1042 C   0  0  0  0  0  0  0  0  0  0  0  0
    2.9467  -11.7760   19.7236 N   0  0  0  0  0  0  0  0  0  0  0  0
   10.7025   -3.4749   22.3485 O   0  0  0  0  0  0  0  0  0  0  0  0
   10.3385   -5.6464   20.1150 C   0  0  0  0  0  0  0  0  0  0  0  0
    5.9584   -8.9793   17.1213 C   0  0  0  0  0  0  0  0  0  0  0  0
    8.3630   -6.0487   17.0393 C   0  0  0  0  0  0  0  0  0  0  0  0
   10.4528   -3.4794   24.7275 C   0  0  0  0  0  0  0  0  0  0  0  0
    7.8444   -7.2884   17.0378 N   0  0  0  0  0  0  0  0  0  0  0  0
    9.6649   -4.1531   17.9129 C   0  0  0  0  0  0  0  0  0  0  0  0
    6.5123   -7.6001   17.2994 C   0  0  0  0  0  0  0  0  0  0  0  0
    4.3972  -10.3777   18.3970 C   0  0  0  0  0  0  0  0  0  0  0  0
    2.2326   -9.4631   17.0588 C   0  0  0  0  0  0  0  0  0  0  0  0
   10.0926   -3.3837   27.0203 F   0  0  0  0  0  0  0  0  0  0  0  0
    8.6709   -8.3330   16.5035 C   0  0  0  0  0  0  0  0  0  0  0  0
   10.3377   -3.5872   18.9181 N   0  0  0  0  0  0  0  0  0  0  0  0
    6.7711   -8.5122   14.8705 C   0  0  0  0  0  0  0  0  0  0  0  0
   10.3822   -2.8389   23.5268 C   0  0  0  0  0  0  0  0  0  0  0  0
    9.9658   -1.5266   23.4190 C   0  0  0  0  0  0  0  0  0  0  0  0
    1.7548  -12.2102   19.9931 C   0  0  0  0  0  0  0  0  0  0  0  0
    9.5343   -0.8855   24.5476 C   0  0  0  0  0  0  0  0  0  0  0  0
   11.0273   -3.6151   21.2034 C   0  0  0  0  0  0  0  0  0  0  0  0
    0.8610  -10.8789   18.3628 N   0  0  0  0  0  0  0  0  0  0  0  0
    9.2366   -5.4816   18.0269 C   0  0  0  0  0  0  0  0  0  0  0  0
    4.5574   -9.4768   17.4360 C   0  0  0  0  0  0  0  0  0  0  0  0
    0.7032  -11.7483   19.2982 C   0  0  0  0  0  0  0  0  0  0  0  0
    3.4811   -9.0239   16.7848 C   0  0  0  0  0  0  0  0  0  0  0  0
    6.1083   -9.2742   15.7677 O   0  0  0  0  0  0  0  0  0  0  0  0
    2.0504  -10.3940   18.0413 C   0  0  0  0  0  0  0  0  0  0  0  0
   10.5640   -4.2881   20.0570 C   0  0  0  0  0  0  0  0  0  0  0  0
  1  2  4  0
  1 25  4  0
  2 12  4  0
  2 18  1  0
  3  9  4  0
  3 28  4  0
  4  7  4  0
  4 16  4  0
  4 33  4  0
  5 11  2  0
  6 19  1  0
  6 21  1  0
  7 24  4  0
  8 22  1  0
  8 26  2  0
  9 34  4  0
 10 15  1  0
 10 29  1  0
 10 32  1  0
 11 13  1  0
 11 28  1  0
 12 22  4  0
 13 15  1  0
 13 19  1  0
 14 20  4  0
 14 28  4  0
 16 29  4  0
 17 31  4  0
 17 33  4  0
 20 34  4  0
 21 32  1  0
 22 23  4  0
 23 25  4  0
 24 30  4  0
 26 34  1  0
 27 30  4  0
 27 33  4  0
 29 31  4  0
M  END
$$$$

 Created by Python create_sdf_string function

 34 41  0  0  0  0  0  0  0  0999 V2000
    9.5638   -1.5583   25.7600 C   0  0  0  0  0  0  0  0  0  0  0  0
   10.0448   -2.8377   25.8457 C   0  0  0  0  0  0  0  0  0  0  0  0
    9.6635   -6.1976   19.0809 C   0  0  0  0  0  0  0  0  0  0  0  0
    3.1393  -10.8668   18.7500 C   0  0  0  0  0  0  0  0  0  0  0  0
    8.0965   -5.3029   16.1511 O   0  0  0  0  0  0  0  0  0  0  0  0
    8.2377   -8.6492   15.0996 C   0  0  0  0  0  0  0  0  0  0  0  0
    2.9601  -11.7951   19.7184 N   0  0  0  0  0  0  0  0  0  0  0  0
   10.7034   -3.4591   22.3543 O   0  0  0  0  0  0  0  0  0  0  0  0
   10.3613   -5.6577   20.1249 C   0  0  0  0  0  0  0  0  0  0  0  0
    5.9647   -8.9880   17.1223 C   0  0  0  0  0  0  0  0  0  0  0  0
    8.3651   -6.0459   17.0234 C   0  0  0  0  0  0  0  0  0  0  0  0
   10.4489   -3.4672   24.7298 C   0  0  0  0  0  0  0  0  0  0  0  0
    7.8349   -7.2971   17.0411 N   0  0  0  0  0  0  0  0  0  0  0  0
    9.6626   -4.1594   17.9297 C   0  0  0  0  0  0  0  0  0  0  0  0
    6.5125   -7.6187   17.3010 C   0  0  0  0  0  0  0  0  0  0  0  0
    4.3944  -10.3840   18.3960 C   0  0  0  0  0  0  0  0  0  0  0  0
    2.2174   -9.4648   17.0613 C   0  0  0  0  0  0  0  0  0  0  0  0
   10.0929   -3.3904   27.0305 F   0  0  0  0  0  0  0  0  0  0  0  0
    8.7011   -8.3482   16.4896 C   0  0  0  0  0  0  0  0  0  0  0  0
   10.3244   -3.5869   18.9287 N   0  0  0  0  0  0  0  0  0  0  0  0
    6.7635   -8.5174   14.8394 C   0  0  0  0  0  0  0  0  0  0  0  0
   10.3853   -2.8369   23.5249 C   0  0  0  0  0  0  0  0  0  0  0  0
    9.9684   -1.5338   23.4184 C   0  0  0  0  0  0  0  0  0  0  0  0
    1.7687  -12.2025   20.0135 C   0  0  0  0  0  0  0  0  0  0  0  0
    9.5304   -0.8827   24.5394 C   0  0  0  0  0  0  0  0  0  0  0  0
   11.0305   -3.6209   21.1890 C   0  0  0  0  0  0  0  0  0  0  0  0
    0.8499  -10.8937   18.3595 N   0  0  0  0  0  0  0  0  0  0  0  0
    9.2480   -5.4863   18.0227 C   0  0  0  0  0  0  0  0  0  0  0  0
    4.5896   -9.4686   17.4244 C   0  0  0  0  0  0  0  0  0  0  0  0
    0.6923  -11.7502   19.2989 C   0  0  0  0  0  0  0  0  0  0  0  0
    3.4826   -9.0143   16.7778 C   0  0  0  0  0  0  0  0  0  0  0  0
    6.1096   -9.2713   15.7860 O   0  0  0  0  0  0  0  0  0  0  0  0
    2.0574  -10.3874   18.0333 C   0  0  0  0  0  0  0  0  0  0  0  0
   10.5713   -4.3017   20.0587 C   0  0  0  0  0  0  0  0  0  0  0  0
  1  2  4  0
  1 25  4  0
  2 12  4  0
  2 18  1  0
  3  9  4  0
  3 28  4  0
  3 31  2  0
  4  7  4  0
  4 16  4  0
  4 33  4  0
  5 11  2  0
  5 21  2  0
  6 19  1  0
  6 21  1  0
  7 24  4  0
  8 22  1  0
  8 26  2  0
  9 34  4  0
 10 15  1  0
 10 29  1  0
 10 32  1  0
 11 13  1  0
 11 28  1  0
 12 22  4  0
 13 15  1  0
 13 19  1  0
 14 20  4  0
 14 28  4  0
 16 29  4  0
 17 31  4  0
 17 33  4  0
 20 34  4  0
 21 32  1  0
 22 23  4  0
 23 25  4  0
 23 29  2  0
 24 30  4  0
 26 34  1  0
 27 30  4  0
 27 33  4  0
 29 31  4  0
M  END
$$$$

 Created by Python create_sdf_string function

 34 38  0  0  0  0  0  0  0  0999 V2000
    9.5592   -1.5267   25.7626 C   0  0  0  0  0  0  0  0  0  0  0  0
   10.0398   -2.8257   25.8411 C   0  0  0  0  0  0  0  0  0  0  0  0
    9.6588   -6.2058   19.0545 C   0  0  0  0  0  0  0  0  0  0  0  0
    3.1518  -10.8747   18.7469 C   0  0  0  0  0  0  0  0  0  0  0  0
    8.0950   -5.2965   16.1436 O   0  0  0  0  0  0  0  0  0  0  0  0
    8.2357   -8.6597   15.1010 C   0  0  0  0  0  0  0  0  0  0  0  0
    2.9753  -11.7948   19.7300 N   0  0  0  0  0  0  0  0  0  0  0  0
   10.6984   -3.4387   22.3379 O   0  0  0  0  0  0  0  0  0  0  0  0
   10.3444   -5.6527   20.1011 C   0  0  0  0  0  0  0  0  0  0  0  0
    5.9562   -8.9802   17.1266 C   0  0  0  0  0  0  0  0  0  0  0  0
    8.3517   -6.0460   17.0148 C   0  0  0  0  0  0  0  0  0  0  0  0
   10.4439   -3.4620   24.7121 C   0  0  0  0  0  0  0  0  0  0  0  0
    7.8408   -7.2898   17.0160 N   0  0  0  0  0  0  0  0  0  0  0  0
    9.6571   -4.1625   17.9210 C   0  0  0  0  0  0  0  0  0  0  0  0
    6.5222   -7.6153   17.3059 C   0  0  0  0  0  0  0  0  0  0  0  0
    4.3990  -10.3789   18.4019 C   0  0  0  0  0  0  0  0  0  0  0  0
    2.2411   -9.4781   17.0777 C   0  0  0  0  0  0  0  0  0  0  0  0
   10.0913   -3.3895   27.0053 F   0  0  0  0  0  0  0  0  0  0  0  0
    8.6868   -8.3277   16.4920 C   0  0  0  0  0  0  0  0  0  0  0  0
   10.3141   -3.5920   18.9281 N   0  0  0  0  0  0  0  0  0  0  0  0
    6.7583   -8.5141   14.8468 C   0  0  0  0  0  0  0  0  0  0  0  0
   10.3774   -2.8115   23.5241 C   0  0  0  0  0  0  0  0  0  0  0  0
    9.9531   -1.5007   23.4116 C   0  0  0  0  0  0  0  0  0  0  0  0
    1.7791  -12.2169   20.0212 C   0  0  0  0  0  0  0  0  0  0  0  0
    9.5237   -0.8593   24.5487 C   0  0  0  0  0  0  0  0  0  0  0  0
   11.0236   -3.6192   21.2019 C   0  0  0  0  0  0  0  0  0  0  0  0
    0.8685  -10.9004   18.3811 N   0  0  0  0  0  0  0  0  0  0  0  0
    9.2349   -5.4855   18.0113 C   0  0  0  0  0  0  0  0  0  0  0  0
    4.5744   -9.4765   17.4412 C   0  0  0  0  0  0  0  0  0  0  0  0
    0.7174  -11.7717   19.3277 C   0  0  0  0  0  0  0  0  0  0  0  0
    3.4852   -9.0305   16.7921 C   0  0  0  0  0  0  0  0  0  0  0  0
    6.0973   -9.2753   15.7716 O   0  0  0  0  0  0  0  0  0  0  0  0
    2.0559  -10.4113   18.0571 C   0  0  0  0  0  0  0  0  0  0  0  0
   10.5641   -4.2967   20.0568 C   0  0  0  0  0  0  0  0  0  0  0  0
  1  2  4  0
  1 25  4  0
  2 12  4  0
  2 18  1  0
  3  9  4  0
  3 28  4  0
  4  7  4  0
  4 16  4  0
  4 33  4  0
  5 11  2  0
  6 19  1  0
  6 21  1  0
  7 24  4  0
  8 22  1  0
  8 26  2  0
  9 34  4  0
 10 15  1  0
 10 29  1  0
 10 32  1  0
 11 13  1  0
 11 28  1  0
 12 22  4  0
 13 15  1  0
 13 19  1  0
 14 20  4  0
 14 28  4  0
 16 29  4  0
 17 31  4  0
 17 33  4  0
 20 34  4  0
 21 32  1  0
 22 23  4  0
 23 25  4  0
 24 30  4  0
 26 34  1  0
 27 30  4  0
 27 33  4  0
 29 31  4  0
M  END
$$$$

 Created by Python create_sdf_string function

 34 38  0  0  0  0  0  0  0  0999 V2000
    9.5601   -1.5252   25.7708 C   0  0  0  0  0  0  0  0  0  0  0  0
   10.0434   -2.8276   25.8476 C   0  0  0  0  0  0  0  0  0  0  0  0
    9.6686   -6.2069   19.0530 C   0  0  0  0  0  0  0  0  0  0  0  0
    3.1457  -10.8697   18.7316 C   0  0  0  0  0  0  0  0  0  0  0  0
    8.0945   -5.2999   16.1291 O   0  0  0  0  0  0  0  0  0  0  0  0
    8.2314   -8.6525   15.0956 C   0  0  0  0  0  0  0  0  0  0  0  0
    2.9586  -11.8045   19.7176 N   0  0  0  0  0  0  0  0  0  0  0  0
   10.7115   -3.4372   22.3248 O   0  0  0  0  0  0  0  0  0  0  0  0
   10.3251   -5.6430   20.0995 C   0  0  0  0  0  0  0  0  0  0  0  0
    5.9565   -8.9701   17.1336 C   0  0  0  0  0  0  0  0  0  0  0  0
    8.3566   -6.0273   17.0207 C   0  0  0  0  0  0  0  0  0  0  0  0
   10.4492   -3.4517   24.7122 C   0  0  0  0  0  0  0  0  0  0  0  0
    7.8445   -7.2883   17.0106 N   0  0  0  0  0  0  0  0  0  0  0  0
    9.6549   -4.1592   17.9178 C   0  0  0  0  0  0  0  0  0  0  0  0
    6.5221   -7.6262   17.3153 C   0  0  0  0  0  0  0  0  0  0  0  0
    4.4070  -10.3669   18.4030 C   0  0  0  0  0  0  0  0  0  0  0  0
    2.2519   -9.4792   17.0765 C   0  0  0  0  0  0  0  0  0  0  0  0
   10.0867   -3.3919   27.0137 F   0  0  0  0  0  0  0  0  0  0  0  0
    8.6883   -8.3180   16.4941 C   0  0  0  0  0  0  0  0  0  0  0  0
   10.3045   -3.5899   18.9287 N   0  0  0  0  0  0  0  0  0  0  0  0
    6.7588   -8.5163   14.8467 C   0  0  0  0  0  0  0  0  0  0  0  0
   10.3784   -2.8106   23.5264 C   0  0  0  0  0  0  0  0  0  0  0  0
    9.9526   -1.5053   23.4079 C   0  0  0  0  0  0  0  0  0  0  0  0
    1.7878  -12.2318   20.0151 C   0  0  0  0  0  0  0  0  0  0  0  0
    9.5287   -0.8528   24.5578 C   0  0  0  0  0  0  0  0  0  0  0  0
   11.0259   -3.6312   21.1965 C   0  0  0  0  0  0  0  0  0  0  0  0
    0.8770  -10.8891   18.3872 N   0  0  0  0  0  0  0  0  0  0  0  0
    9.2416   -5.4848   18.0111 C   0  0  0  0  0  0  0  0  0  0  0  0
    4.5660   -9.4838   17.4380 C   0  0  0  0  0  0  0  0  0  0  0  0
    0.7209  -11.7718   19.3220 C   0  0  0  0  0  0  0  0  0  0  0  0
    3.4865   -9.0317   16.7919 C   0  0  0  0  0  0  0  0  0  0  0  0
    6.1015   -9.2738   15.7711 O   0  0  0  0  0  0  0  0  0  0  0  0
    2.0523  -10.4159   18.0549 C   0  0  0  0  0  0  0  0  0  0  0  0
   10.5676   -4.2950   20.0560 C   0  0  0  0  0  0  0  0  0  0  0  0
  1  2  4  0
  1 25  4  0
  2 12  4  0
  2 18  1  0
  3  9  4  0
  3 28  4  0
  4  7  4  0
  4 16  4  0
  4 33  4  0
  5 11  2  0
  6 19  1  0
  6 21  1  0
  7 24  4  0
  8 22  1  0
  8 26  2  0
  9 34  4  0
 10 15  1  0
 10 29  1  0
 10 32  1  0
 11 13  1  0
 11 28  1  0
 12 22  4  0
 13 15  1  0
 13 19  1  0
 14 20  4  0
 14 28  4  0
 16 29  4  0
 17 31  4  0
 17 33  4  0
 20 34  4  0
 21 32  1  0
 22 23  4  0
 23 25  4  0
 24 30  4  0
 26 34  1  0
 27 30  3  0
 27 33  4  0
 29 31  4  0
M  END
$$$$

 Created by Python create_sdf_string function

 34 38  0  0  0  0  0  0  0  0999 V2000
    9.5606   -1.5071   25.7652 C   0  0  0  0  0  0  0  0  0  0  0  0
   10.0390   -2.8132   25.8320 C   0  0  0  0  0  0  0  0  0  0  0  0
    9.6544   -6.2100   19.0319 C   0  0  0  0  0  0  0  0  0  0  0  0
    3.1599  -10.8856   18.7549 C   0  0  0  0  0  0  0  0  0  0  0  0
    8.0966   -5.2903   16.1289 O   0  0  0  0  0  0  0  0  0  0  0  0
    8.2299   -8.6634   15.0976 C   0  0  0  0  0  0  0  0  0  0  0  0
    2.9929  -11.8119   19.7330 N   0  0  0  0  0  0  0  0  0  0  0  0
   10.6972   -3.4042   22.3188 O   0  0  0  0  0  0  0  0  0  0  0  0
   10.3227   -5.6484   20.0798 C   0  0  0  0  0  0  0  0  0  0  0  0
    5.9500   -8.9656   17.1308 C   0  0  0  0  0  0  0  0  0  0  0  0
    8.3496   -6.0374   17.0047 C   0  0  0  0  0  0  0  0  0  0  0  0
   10.4396   -3.4363   24.7014 C   0  0  0  0  0  0  0  0  0  0  0  0
    7.8398   -7.2784   16.9957 N   0  0  0  0  0  0  0  0  0  0  0  0
    9.6454   -4.1649   17.9092 C   0  0  0  0  0  0  0  0  0  0  0  0
    6.5391   -7.6126   17.3181 C   0  0  0  0  0  0  0  0  0  0  0  0
    4.4132  -10.3798   18.4153 C   0  0  0  0  0  0  0  0  0  0  0  0
    2.2466   -9.4963   17.0933 C   0  0  0  0  0  0  0  0  0  0  0  0
   10.0881   -3.3913   26.9877 F   0  0  0  0  0  0  0  0  0  0  0  0
    8.6845   -8.3124   16.4806 C   0  0  0  0  0  0  0  0  0  0  0  0
   10.2969   -3.5950   18.9216 N   0  0  0  0  0  0  0  0  0  0  0  0
    6.7547   -8.5117   14.8525 C   0  0  0  0  0  0  0  0  0  0  0  0
   10.3751   -2.7930   23.5072 C   0  0  0  0  0  0  0  0  0  0  0  0
    9.9415   -1.4723   23.4011 C   0  0  0  0  0  0  0  0  0  0  0  0
    1.7903  -12.2415   20.0211 C   0  0  0  0  0  0  0  0  0  0  0  0
    9.5246   -0.8377   24.5518 C   0  0  0  0  0  0  0  0  0  0  0  0
   11.0184   -3.6326   21.1992 C   0  0  0  0  0  0  0  0  0  0  0  0
    0.8815  -10.9148   18.4136 N   0  0  0  0  0  0  0  0  0  0  0  0
    9.2268   -5.4843   17.9955 C   0  0  0  0  0  0  0  0  0  0  0  0
    4.5685   -9.4835   17.4503 C   0  0  0  0  0  0  0  0  0  0  0  0
    0.7470  -11.7754   19.3324 C   0  0  0  0  0  0  0  0  0  0  0  0
    3.4844   -9.0447   16.8015 C   0  0  0  0  0  0  0  0  0  0  0  0
    6.0915   -9.2645   15.7733 O   0  0  0  0  0  0  0  0  0  0  0  0
    2.0657  -10.4243   18.0717 C   0  0  0  0  0  0  0  0  0  0  0  0
   10.5504   -4.2966   20.0530 C   0  0  0  0  0  0  0  0  0  0  0  0
  1  2  4  0
  1 25  4  0
  2 12  4  0
  2 18  1  0
  3  9  4  0
  3 28  4  0
  4  7  4  0
  4 16  4  0
  4 33  4  0
  5 11  2  0
  6 19  1  0
  6 21  1  0
  7 24  4  0
  8 22  1  0
  8 26  2  0
  9 34  4  0
 10 15  1  0
 10 29  1  0
 10 32  1  0
 11 13  1  0
 11 28  1  0
 12 22  4  0
 13 15  1  0
 13 19  1  0
 14 20  4  0
 14 28  4  0
 16 29  4  0
 17 31  4  0
 17 33  4  0
 20 34  4  0
 21 32  1  0
 22 23  4  0
 23 25  4  0
 24 30  4  0
 26 34  1  0
 27 30  4  0
 27 33  4  0
 29 31  4  0
M  END
$$$$

 Created by Python create_sdf_string function

 34 38  0  0  0  0  0  0  0  0999 V2000
    9.5653   -1.5048   25.7676 C   0  0  0  0  0  0  0  0  0  0  0  0
   10.0386   -2.8139   25.8222 C   0  0  0  0  0  0  0  0  0  0  0  0
    9.6602   -6.2113   19.0338 C   0  0  0  0  0  0  0  0  0  0  0  0
    3.1605  -10.8884   18.7543 C   0  0  0  0  0  0  0  0  0  0  0  0
    8.0994   -5.2894   16.1283 O   0  0  0  0  0  0  0  0  0  0  0  0
    8.2353   -8.6608   15.1029 C   0  0  0  0  0  0  0  0  0  0  0  0
    3.0036  -11.8140   19.7391 N   0  0  0  0  0  0  0  0  0  0  0  0
   10.7060   -3.4011   22.3178 O   0  0  0  0  0  0  0  0  0  0  0  0
   10.3217   -5.6471   20.0776 C   0  0  0  0  0  0  0  0  0  0  0  0
    5.9548   -8.9627   17.1290 C   0  0  0  0  0  0  0  0  0  0  0  0
    8.3497   -6.0419   17.0050 C   0  0  0  0  0  0  0  0  0  0  0  0
   10.4391   -3.4384   24.6987 C   0  0  0  0  0  0  0  0  0  0  0  0
    7.8411   -7.2787   16.9965 N   0  0  0  0  0  0  0  0  0  0  0  0
    9.6413   -4.1639   17.9081 C   0  0  0  0  0  0  0  0  0  0  0  0
    6.5393   -7.6074   17.3172 C   0  0  0  0  0  0  0  0  0  0  0  0
    4.4132  -10.3794   18.4159 C   0  0  0  0  0  0  0  0  0  0  0  0
    2.2438   -9.4994   17.0939 C   0  0  0  0  0  0  0  0  0  0  0  0
   10.0863   -3.3969   26.9853 F   0  0  0  0  0  0  0  0  0  0  0  0
    8.6836   -8.3163   16.4791 C   0  0  0  0  0  0  0  0  0  0  0  0
   10.3020   -3.5892   18.9195 N   0  0  0  0  0  0  0  0  0  0  0  0
    6.7555   -8.5128   14.8450 C   0  0  0  0  0  0  0  0  0  0  0  0
   10.3719   -2.7943   23.5060 C   0  0  0  0  0  0  0  0  0  0  0  0
    9.9399   -1.4755   23.4055 C   0  0  0  0  0  0  0  0  0  0  0  0
    1.7932  -12.2414   20.0274 C   0  0  0  0  0  0  0  0  0  0  0  0
    9.5288   -0.8321   24.5550 C   0  0  0  0  0  0  0  0  0  0  0  0
   11.0151   -3.6316   21.2038 C   0  0  0  0  0  0  0  0  0  0  0  0
    0.8822  -10.9143   18.4118 N   0  0  0  0  0  0  0  0  0  0  0  0
    9.2277   -5.4851   17.9938 C   0  0  0  0  0  0  0  0  0  0  0  0
    4.5618   -9.4811   17.4459 C   0  0  0  0  0  0  0  0  0  0  0  0
    0.7431  -11.7748   19.3304 C   0  0  0  0  0  0  0  0  0  0  0  0
    3.4910   -9.0460   16.8012 C   0  0  0  0  0  0  0  0  0  0  0  0
    6.0937   -9.2638   15.7735 O   0  0  0  0  0  0  0  0  0  0  0  0
    2.0607  -10.4255   18.0690 C   0  0  0  0  0  0  0  0  0  0  0  0
   10.5487   -4.3032   20.0554 C   0  0  0  0  0  0  0  0  0  0  0  0
  1  2  4  0
  1 25  4  0
  2 12  4  0
  2 18  1  0
  3  9  4  0
  3 28  4  0
  4  7  4  0
  4 16  4  0
  4 33  4  0
  5 11  2  0
  6 19  1  0
  6 21  1  0
  7 24  4  0
  8 22  1  0
  8 26  2  0
  9 34  4  0
 10 15  1  0
 10 29  1  0
 10 32  1  0
 11 13  1  0
 11 28  1  0
 12 22  4  0
 13 15  1  0
 13 19  1  0
 14 20  4  0
 14 28  4  0
 16 29  4  0
 17 31  4  0
 17 33  4  0
 20 34  4  0
 21 32  1  0
 22 23  4  0
 23 25  4  0
 24 30  4  0
 26 34  1  0
 27 30  4  0
 27 33  4  0
 29 31  4  0
M  END
$$$$

 Created by Python create_sdf_string function

 34 38  0  0  0  0  0  0  0  0999 V2000
    9.5647   -1.4891   25.7622 C   0  0  0  0  0  0  0  0  0  0  0  0
   10.0346   -2.7985   25.8120 C   0  0  0  0  0  0  0  0  0  0  0  0
    9.6483   -6.2121   19.0175 C   0  0  0  0  0  0  0  0  0  0  0  0
    3.1759  -10.8959   18.7706 C   0  0  0  0  0  0  0  0  0  0  0  0
    8.0973   -5.2810   16.1205 O   0  0  0  0  0  0  0  0  0  0  0  0
    8.2246   -8.6740   15.1021 C   0  0  0  0  0  0  0  0  0  0  0  0
    3.0078  -11.8188   19.7466 N   0  0  0  0  0  0  0  0  0  0  0  0
   10.6879   -3.3768   22.3066 O   0  0  0  0  0  0  0  0  0  0  0  0
   10.3186   -5.6525   20.0654 C   0  0  0  0  0  0  0  0  0  0  0  0
    5.9434   -8.9573   17.1313 C   0  0  0  0  0  0  0  0  0  0  0  0
    8.3472   -6.0368   16.9924 C   0  0  0  0  0  0  0  0  0  0  0  0
   10.4306   -3.4213   24.6822 C   0  0  0  0  0  0  0  0  0  0  0  0
    7.8389   -7.2733   16.9812 N   0  0  0  0  0  0  0  0  0  0  0  0
    9.6357   -4.1647   17.9030 C   0  0  0  0  0  0  0  0  0  0  0  0
    6.5483   -7.6020   17.3170 C   0  0  0  0  0  0  0  0  0  0  0  0
    4.4246  -10.3868   18.4274 C   0  0  0  0  0  0  0  0  0  0  0  0
    2.2471   -9.5104   17.1060 C   0  0  0  0  0  0  0  0  0  0  0  0
   10.0867   -3.3937   26.9617 F   0  0  0  0  0  0  0  0  0  0  0  0
    8.6825   -8.3064   16.4705 C   0  0  0  0  0  0  0  0  0  0  0  0
   10.2881   -3.5971   18.9161 N   0  0  0  0  0  0  0  0  0  0  0  0
    6.7501   -8.5113   14.8515 C   0  0  0  0  0  0  0  0  0  0  0  0
   10.3663   -2.7699   23.4924 C   0  0  0  0  0  0  0  0  0  0  0  0
    9.9330   -1.4463   23.3914 C   0  0  0  0  0  0  0  0  0  0  0  0
    1.8179  -12.2479   20.0344 C   0  0  0  0  0  0  0  0  0  0  0  0
    9.5236   -0.8133   24.5493 C   0  0  0  0  0  0  0  0  0  0  0  0
   11.0053   -3.6346   21.2060 C   0  0  0  0  0  0  0  0  0  0  0  0
    0.8914  -10.9246   18.4237 N   0  0  0  0  0  0  0  0  0  0  0  0
    9.2191   -5.4847   17.9854 C   0  0  0  0  0  0  0  0  0  0  0  0
    4.5674   -9.4899   17.4589 C   0  0  0  0  0  0  0  0  0  0  0  0
    0.7532  -11.7969   19.3572 C   0  0  0  0  0  0  0  0  0  0  0  0
    3.4845   -9.0571   16.8115 C   0  0  0  0  0  0  0  0  0  0  0  0
    6.0817   -9.2528   15.7784 O   0  0  0  0  0  0  0  0  0  0  0  0
    2.0809  -10.4365   18.0874 C   0  0  0  0  0  0  0  0  0  0  0  0
   10.5400   -4.2997   20.0491 C   0  0  0  0  0  0  0  0  0  0  0  0
  1  2  4  0
  1 25  4  0
  2 12  4  0
  2 18  1  0
  3  9  4  0
  3 28  4  0
  4  7  4  0
  4 16  4  0
  4 33  4  0
  5 11  2  0
  6 19  1  0
  6 21  1  0
  7 24  4  0
  8 22  1  0
  8 26  2  0
  9 34  4  0
 10 15  1  0
 10 29  1  0
 10 32  1  0
 11 13  1  0
 11 28  1  0
 12 22  4  0
 13 15  1  0
 13 19  1  0
 14 20  4  0
 14 28  4  0
 16 29  4  0
 17 31  4  0
 17 33  4  0
 20 34  4  0
 21 32  1  0
 22 23  4  0
 23 25  4  0
 24 30  4  0
 26 34  1  0
 27 30  4  0
 27 33  4  0
 29 31  4  0
M  END
$$$$

 Created by Python create_sdf_string function

 34 38  0  0  0  0  0  0  0  0999 V2000
    9.5647   -1.4891   25.7622 C   0  0  0  0  0  0  0  0  0  0  0  0
   10.0346   -2.7985   25.8120 C   0  0  0  0  0  0  0  0  0  0  0  0
    9.6483   -6.2121   19.0175 C   0  0  0  0  0  0  0  0  0  0  0  0
    3.1759  -10.8959   18.7706 C   0  0  0  0  0  0  0  0  0  0  0  0
    8.0973   -5.2810   16.1205 O   0  0  0  0  0  0  0  0  0  0  0  0
    8.2246   -8.6740   15.1021 C   0  0  0  0  0  0  0  0  0  0  0  0
    3.0078  -11.8188   19.7466 N   0  0  0  0  0  0  0  0  0  0  0  0
   10.6879   -3.3768   22.3066 O   0  0  0  0  0  0  0  0  0  0  0  0
   10.3186   -5.6525   20.0654 C   0  0  0  0  0  0  0  0  0  0  0  0
    5.9434   -8.9573   17.1313 C   0  0  0  0  0  0  0  0  0  0  0  0
    8.3472   -6.0368   16.9924 C   0  0  0  0  0  0  0  0  0  0  0  0
   10.4306   -3.4213   24.6822 C   0  0  0  0  0  0  0  0  0  0  0  0
    7.8389   -7.2733   16.9812 N   0  0  0  0  0  0  0  0  0  0  0  0
    9.6357   -4.1647   17.9030 C   0  0  0  0  0  0  0  0  0  0  0  0
    6.5483   -7.6020   17.3170 C   0  0  0  0  0  0  0  0  0  0  0  0
    4.4246  -10.3868   18.4274 C   0  0  0  0  0  0  0  0  0  0  0  0
    2.2471   -9.5104   17.1060 C   0  0  0  0  0  0  0  0  0  0  0  0
   10.0867   -3.3937   26.9617 F   0  0  0  0  0  0  0  0  0  0  0  0
    8.6825   -8.3064   16.4705 C   0  0  0  0  0  0  0  0  0  0  0  0
   10.2881   -3.5971   18.9161 N   0  0  0  0  0  0  0  0  0  0  0  0
    6.7501   -8.5113   14.8515 C   0  0  0  0  0  0  0  0  0  0  0  0
   10.3663   -2.7699   23.4924 C   0  0  0  0  0  0  0  0  0  0  0  0
    9.9330   -1.4463   23.3914 C   0  0  0  0  0  0  0  0  0  0  0  0
    1.8179  -12.2479   20.0344 C   0  0  0  0  0  0  0  0  0  0  0  0
    9.5236   -0.8133   24.5493 C   0  0  0  0  0  0  0  0  0  0  0  0
   11.0053   -3.6346   21.2060 C   0  0  0  0  0  0  0  0  0  0  0  0
    0.8914  -10.9246   18.4237 N   0  0  0  0  0  0  0  0  0  0  0  0
    9.2191   -5.4847   17.9854 C   0  0  0  0  0  0  0  0  0  0  0  0
    4.5674   -9.4899   17.4589 C   0  0  0  0  0  0  0  0  0  0  0  0
    0.7532  -11.7969   19.3572 C   0  0  0  0  0  0  0  0  0  0  0  0
    3.4845   -9.0571   16.8115 C   0  0  0  0  0  0  0  0  0  0  0  0
    6.0817   -9.2528   15.7784 O   0  0  0  0  0  0  0  0  0  0  0  0
    2.0809  -10.4365   18.0874 C   0  0  0  0  0  0  0  0  0  0  0  0
   10.5400   -4.2997   20.0491 C   0  0  0  0  0  0  0  0  0  0  0  0
  1  2  4  0
  1 25  4  0
  2 12  4  0
  2 18  1  0
  3  9  4  0
  3 28  4  0
  4  7  4  0
  4 16  4  0
  4 33  4  0
  5 11  2  0
  6 19  1  0
  6 21  1  0
  7 24  4  0
  8 22  1  0
  8 26  2  0
  9 34  4  0
 10 15  1  0
 10 29  1  0
 10 32  1  0
 11 13  1  0
 11 28  1  0
 12 22  4  0
 13 15  1  0
 13 19  1  0
 14 20  4  0
 14 28  4  0
 16 29  4  0
 17 31  4  0
 17 33  4  0
 20 34  4  0
 21 32  1  0
 22 23  4  0
 23 25  4  0
 24 30  4  0
 26 34  1  0
 27 30  4  0
 27 33  4  0
 29 31  4  0
M  END
$$$$

 Created by Python create_sdf_string function

 34 85  0  0  0  0  0  0  0  0999 V2000
    9.8472   -1.5305   25.0078 C   0  0  0  0  0  0  0  0  0  0  0  0
   10.8574   -2.3279   25.1427 C   0  0  0  0  0  0  0  0  0  0  0  0
    2.4490  -11.7970   19.4518 C   0  0  0  0  0  0  0  0  0  0  0  0
    8.2621   -5.2657   15.8825 O   0  0  0  0  0  0  0  0  0  0  0  0
    2.6022  -12.0898   20.7893 F   0  0  0  0  0  0  0  0  0  0  0  0
    9.2637   -9.2131   17.4508 C   0  0  0  0  0  0  0  0  0  0  0  0
    9.8093   -5.8226   19.4249 C   0  0  0  0  0  0  0  0  0  0  0  0
    5.6187   -9.3472   18.1897 P   0  0  0  0  0  0  0  0  0  0  0  0
    8.2894   -5.5996   17.3076 C   0  0  0  0  0  0  0  0  0  0  0  0
    8.2299   -6.8856   16.8993 N   0  0  0  0  0  0  0  0  0  0  0  0
    9.1740   -4.7035   17.9146 C   0  0  0  0  0  0  0  0  0  0  0  0
    4.9166  -11.0031   18.0319 C   0  0  0  0  0  0  0  0  0  0  0  0
   10.2771   -3.8894   27.2893 F   0  0  0  0  0  0  0  0  0  0  0  0
   10.0428   -3.5279   18.2815 Se  0  0  0  0  0  0  0  0  0  0  0  0
    7.5196  -10.4905   15.9269 Br  0  0  0  0  0  0  0  0  0  0  0  0
    8.3111   -7.9283   17.7284 F   0  0  0  0  0  0  0  0  0  0  0  0
    1.5107  -13.1788   20.3404 C   0  0  0  0  0  0  0  0  0  0  0  0
    9.2142   -0.5973   24.2277 C   0  0  0  0  0  0  0  0  0  0  0  0
    8.1685   -7.0857   18.8884 C   0  0  0  0  0  0  0  0  0  0  0  0
    0.9246  -10.3485   18.8142 N   0  0  0  0  0  0  0  0  0  0  0  0
    8.9743   -6.1713   18.0197 C   0  0  0  0  0  0  0  0  0  0  0  0
    4.9189   -9.3266   17.2623 C   0  0  0  0  0  0  0  0  0  0  0  0
    1.1210  -11.6076   19.9991 C   0  0  0  0  0  0  0  0  0  0  0  0
    3.4848   -9.0568   16.0502 C   0  0  0  0  0  0  0  0  0  0  0  0
    6.0587   -8.1975   15.6935 O   0  0  0  0  0  0  0  0  0  0  0  0
    1.8556  -10.7862   17.9862 O   0  0  0  0  0  0  0  0  0  0  0  0
    6.8559   -8.6952   18.2115 C   0  0  0  0  0  0  0  0  0  0  0  0
   10.0956   -7.1304   18.5633 He  0  0  0  0  0  0  0  0  0  0  0  0
    8.6570   -8.6472   15.0988 He  0  0  0  0  0  0  0  0  0  0  0  0
    7.4686   -8.1375   15.7688 He  0  0  0  0  0  0  0  0  0  0  0  0
    5.7502   -7.7317   17.7735 He  0  0  0  0  0  0  0  0  0  0  0  0
    2.3138   -9.5802   17.2742 He  0  0  0  0  0  0  0  0  0  0  0  0
    8.2440   -7.8494   16.6141 He  0  0  0  0  0  0  0  0  0  0  0  0
    6.2950   -7.9424   14.4678 He  0  0  0  0  0  0  0  0  0  0  0  0
  1  2  2  0
  1  7  4  0
  1 15  3  0
  1 16  3  0
  1 18  4  0
  1 24  3  0
  2  3  4  0
  2 13  1  0
  2 14  3  0
  2 15  3  0
  2 17  2  0
  3  4  3  0
  3  5  4  0
  3  8  3  0
  3 12  2  0
  3 16  4  0
  3 17  3  0
  3 26  4  0
  4  5  2  0
  4  9  2  0
  4 10  1  0
  4 17  3  0
  4 25  1  0
  4 27  4  0
  5  6  4  0
  5  9  3  0
  5 13  1  0
  5 14  1  0
  5 15  2  0
  5 16  2  0
  5 17  4  0
  5 18  1  0
  5 19  1  0
  5 23  1  0
  5 25  4  0
  5 26  1  0
  6  9  4  0
  6 10  1  0
  6 15  2  0
  6 16  3  0
  6 23  3  0
  6 27  1  0
  7 12  1  0
  7 16  2  0
  7 27  3  0
  8  9  3  0
  8 12  3  0
  8 13  1  0
  8 14  2  0
  8 20  3  0
  8 22  2  0
  8 25  1  0
  8 26  1  0
  9 12  4  0
  9 16  3  0
 10 19  3  0
 10 27  3  0
 11 14  2  0
 11 19  3  0
 11 21  4  0
 11 23  2  0
 12 16  2  0
 12 17  1  0
 12 19  4  0
 12 22  4  0
 13 14  3  0
 13 22  2  0
 13 26  2  0
 14 27  2  0
 15 17  4  0
 15 22  4  0
 15 23  2  0
 15 25  2  0
 16 24  1  0
 16 25  4  0
 16 26  1  0
 17 23  4  0
 17 25  1  0
 18 25  2  0
 19 26  2  0
 20 26  4  0
 21 22  4  0
 22 24  4  0
 22 25  1  0
 22 27  1  0
M  END
$$$$

 Created by Python create_sdf_string function

 34 30  0  0  0  0  0  0  0  0999 V2000
    9.6692   -1.6857   25.0083 C   0  0  0  0  0  0  0  0  0  0  0  0
   10.5927   -2.6400   25.4282 C   0  0  0  0  0  0  0  0  0  0  0  0
   10.1313   -6.8757   19.1694 C   0  0  0  0  0  0  0  0  0  0  0  0
    3.0864  -11.2878   18.9251 C   0  0  0  0  0  0  0  0  0  0  0  0
    8.1330   -4.6744   15.7343 O   0  0  0  0  0  0  0  0  0  0  0  0
    8.3906   -8.4518   14.9098 F   0  0  0  0  0  0  0  0  0  0  0  0
    2.8052  -12.2652   19.9588 C   0  0  0  0  0  0  0  0  0  0  0  0
    8.4519   -8.5825   17.3012 C   0  0  0  0  0  0  0  0  0  0  0  0
   10.4501   -5.5156   19.5338 C   0  0  0  0  0  0  0  0  0  0  0  0
    5.3193   -9.2748   17.7466 C   0  0  0  0  0  0  0  0  0  0  0  0
    8.5167   -5.4824   16.6773 C   0  0  0  0  0  0  0  0  0  0  0  0
    7.1350   -8.4125   15.7466 C   0  0  0  0  0  0  0  0  0  0  0  0
    8.0453   -6.8109   16.4486 N   0  0  0  0  0  0  0  0  0  0  0  0
    9.8923   -4.5887   18.3223 C   0  0  0  0  0  0  0  0  0  0  0  0
    5.9375   -7.8149   18.1163 O   0  0  0  0  0  0  0  0  0  0  0  0
    4.4371  -10.6872   18.5405 C   0  0  0  0  0  0  0  0  0  0  0  0
    2.2263   -9.9165   17.2398 C   0  0  0  0  0  0  0  0  0  0  0  0
   10.2359   -3.4806   26.6143 C   0  0  0  0  0  0  0  0  0  0  0  0
    8.2301   -7.7372   16.4142 C   0  0  0  0  0  0  0  0  0  0  0  0
   10.2775   -3.5527   18.2250 O   0  0  0  0  0  0  0  0  0  0  0  0
    6.1001   -7.8399   14.9434 C   0  0  0  0  0  0  0  0  0  0  0  0
    6.9871   -9.7247   15.7385 O   0  0  0  0  0  0  0  0  0  0  0  0
    8.1757   -7.7622   17.6616 C   0  0  0  0  0  0  0  0  0  0  0  0
    1.6388  -12.3708   20.4700 C   0  0  0  0  0  0  0  0  0  0  0  0
    9.5211   -0.7336   24.3562 C   0  0  0  0  0  0  0  0  0  0  0  0
    9.1151   -6.8947   18.3704 C   0  0  0  0  0  0  0  0  0  0  0  0
    0.9309  -10.9229   18.7353 N   0  0  0  0  0  0  0  0  0  0  0  0
    9.1646   -5.4409   17.7403 C   0  0  0  0  0  0  0  0  0  0  0  0
    4.4569   -9.5668   17.4647 C   0  0  0  0  0  0  0  0  0  0  0  0
    0.7223  -11.7791   19.8545 C   0  0  0  0  0  0  0  0  0  0  0  0
    3.3207   -9.3241   16.6207 C   0  0  0  0  0  0  0  0  0  0  0  0
    5.6960   -8.4726   15.8171 O   0  0  0  0  0  0  0  0  0  0  0  0
    2.1372  -10.6863   18.3583 C   0  0  0  0  0  0  0  0  0  0  0  0
    6.7489   -8.5538   17.6631 C   0  0  0  0  0  0  0  0  0  0  0  0
  1  2  1  0
  1 25  1  0
  2 18  1  0
  3  9  4  0
  3 26  4  0
  4  7  4  0
  4 16  4  0
  4 33  4  0
  5 11  2  0
  7 24  4  0
  9 14  4  0
 10 15  1  0
 10 16  4  0
 10 29  1  0
 11 13  1  0
 11 28  1  0
 13 19  1  0
 14 20  2  0
 14 28  4  0
 15 34  1  0
 16 29  4  0
 17 31  4  0
 17 33  4  0
 19 23  1  0
 21 32  1  0
 24 30  4  0
 26 28  4  0
 27 30  4  0
 27 33  4  0
 29 31  4  0
M  END
$$$$

 Created by Python create_sdf_string function

 34 51  0  0  0  0  0  0  0  0999 V2000
    9.0694   -1.5680   25.1506 C   0  0  0  0  0  0  0  0  0  0  0  0
   10.7268   -2.6450   25.2602 C   0  0  0  0  0  0  0  0  0  0  0  0
    3.4447  -11.4320   18.4392 C   0  0  0  0  0  0  0  0  0  0  0  0
    8.0568   -5.0483   16.6792 O   0  0  0  0  0  0  0  0  0  0  0  0
    8.7697   -9.2871   14.4223 S   0  0  0  0  0  0  0  0  0  0  0  0
    2.3462  -11.9700   20.7517 C   0  0  0  0  0  0  0  0  0  0  0  0
    5.3940   -9.4792   17.6183 C   0  0  0  0  0  0  0  0  0  0  0  0
    8.0447   -5.7320   17.0752 C   0  0  0  0  0  0  0  0  0  0  0  0
    7.7454   -6.9098   15.9970 N   0  0  0  0  0  0  0  0  0  0  0  0
    6.0050   -8.0236   17.8648 O   0  0  0  0  0  0  0  0  0  0  0  0
    1.6898   -9.4413   17.6620 C   0  0  0  0  0  0  0  0  0  0  0  0
    9.9402   -2.4762   26.6626 C   0  0  0  0  0  0  0  0  0  0  0  0
    8.3919   -8.1972   16.0434 C   0  0  0  0  0  0  0  0  0  0  0  0
    6.6883   -8.0156   15.0844 C   0  0  0  0  0  0  0  0  0  0  0  0
    6.3203   -8.0211   16.0478 P   0  0  0  0  0  0  0  0  0  0  0  0
    1.4157  -12.1241   20.6959 C   0  0  0  0  0  0  0  0  0  0  0  0
    9.2109   -0.6302   24.4149 C   0  0  0  0  0  0  0  0  0  0  0  0
    1.0341  -10.7365   19.0757 N   0  0  0  0  0  0  0  0  0  0  0  0
    8.7563   -5.8683   18.0582 C   0  0  0  0  0  0  0  0  0  0  0  0
    4.5746   -9.4353   17.4355 C   0  0  0  0  0  0  0  0  0  0  0  0
    0.3812  -12.2333   19.6463 C   0  0  0  0  0  0  0  0  0  0  0  0
    5.4295   -8.7009   16.1171 O   0  0  0  0  0  0  0  0  0  0  0  0
   10.2838   -7.2120   18.6132 He  0  0  0  0  0  0  0  0  0  0  0  0
   10.5507   -9.2511   18.1445 He  0  0  0  0  0  0  0  0  0  0  0  0
   10.7287   -5.2417   20.0836 He  0  0  0  0  0  0  0  0  0  0  0  0
    5.9440   -9.6659   16.0329 He  0  0  0  0  0  0  0  0  0  0  0  0
    9.4733   -4.6373   17.8638 He  0  0  0  0  0  0  0  0  0  0  0  0
    5.0297  -10.2553   18.2044 He  0  0  0  0  0  0  0  0  0  0  0  0
   11.0249   -3.7532   17.9067 He  0  0  0  0  0  0  0  0  0  0  0  0
    7.6251   -6.7859   18.6783 He  0  0  0  0  0  0  0  0  0  0  0  0
    7.9127   -7.2967   17.6948 He  0  0  0  0  0  0  0  0  0  0  0  0
    2.5870   -9.3180   16.7564 He  0  0  0  0  0  0  0  0  0  0  0  0
    2.4764  -10.2203   18.3946 He  0  0  0  0  0  0  0  0  0  0  0  0
    6.8579   -9.2861   18.9703 He  0  0  0  0  0  0  0  0  0  0  0  0
  1  2  1  0
  1 15  1  0
  1 17  1  0
  2  5  2  0
  2 10  2  0
  2 11  3  0
  2 15  4  0
  2 19  3  0
  3  6  4  0
  3 11  2  0
  3 15  3  0
  3 16  1  0
  4  8  3  0
  4 14  4  0
  4 15  1  0
  4 17  1  0
  4 20  4  0
  5 11  3  0
  5 15  4  0
  5 16  3  0
  5 21  1  0
  6  9  3  0
  6 16  4  0
  6 19  2  0
  7 10  1  0
  7 15  2  0
  7 16  3  0
  7 20  1  0
  7 21  2  0
  8  9  1  0
  8 13  2  0
  8 15  2  0
  8 19  1  0
  8 22  4  0
  9 13  1  0
  9 20  3  0
  9 22  4  0
 10 15  4  0
 10 21  4  0
 11 15  1  0
 12 22  2  0
 13 22  3  0
 14 15  3  0
 14 22  1  0
 15 16  1  0
 15 19  4  0
 16 19  2  0
 16 21  4  0
 18 21  4  0
 19 21  2  0
 20 21  1  0
M  END
$$$$

 Created by Python create_sdf_string function

 34 29  0  0  0  0  0  0  0  0999 V2000
    9.2554   -1.6355   25.0399 C   0  0  0  0  0  0  0  0  0  0  0  0
   10.3554   -2.5906   25.2791 C   0  0  0  0  0  0  0  0  0  0  0  0
   10.2623   -7.0902   19.0743 C   0  0  0  0  0  0  0  0  0  0  0  0
    2.9798  -11.1380   19.0587 C   0  0  0  0  0  0  0  0  0  0  0  0
    8.2200   -4.5981   15.8828 O   0  0  0  0  0  0  0  0  0  0  0  0
    8.3810   -8.9038   14.7168 O   0  0  0  0  0  0  0  0  0  0  0  0
    2.8030  -12.0404   20.0939 C   0  0  0  0  0  0  0  0  0  0  0  0
    9.6539   -7.9820   18.3420 C   0  0  0  0  0  0  0  0  0  0  0  0
   10.5874   -5.3360   19.5290 C   0  0  0  0  0  0  0  0  0  0  0  0
    4.9918   -9.6289   17.9144 C   0  0  0  0  0  0  0  0  0  0  0  0
    8.3995   -5.6341   16.6001 C   0  0  0  0  0  0  0  0  0  0  0  0
    6.0660   -9.1157   15.9820 C   0  0  0  0  0  0  0  0  0  0  0  0
    7.9703   -6.8578   16.1411 N   0  0  0  0  0  0  0  0  0  0  0  0
    9.8712   -4.6969   18.2878 C   0  0  0  0  0  0  0  0  0  0  0  0
    6.1282   -8.0054   18.0363 O   0  0  0  0  0  0  0  0  0  0  0  0
    4.3118  -10.5676   18.6856 C   0  0  0  0  0  0  0  0  0  0  0  0
    2.0201   -9.8543   17.2864 C   0  0  0  0  0  0  0  0  0  0  0  0
   10.0290   -2.6771   26.8077 C   0  0  0  0  0  0  0  0  0  0  0  0
    8.2709   -7.9501   15.8146 C   0  0  0  0  0  0  0  0  0  0  0  0
   10.4195   -3.6114   18.0587 N   0  0  0  0  0  0  0  0  0  0  0  0
    6.3829   -8.1162   15.0808 C   0  0  0  0  0  0  0  0  0  0  0  0
    6.2768   -8.0554   16.1363 C   0  0  0  0  0  0  0  0  0  0  0  0
    8.9047   -6.8844   18.3339 C   0  0  0  0  0  0  0  0  0  0  0  0
    1.5477  -12.3011   20.5474 C   0  0  0  0  0  0  0  0  0  0  0  0
    9.3771   -0.4562   24.4320 C   0  0  0  0  0  0  0  0  0  0  0  0
    8.1941   -7.6736   17.6091 C   0  0  0  0  0  0  0  0  0  0  0  0
    0.6658  -11.1081   18.8086 N   0  0  0  0  0  0  0  0  0  0  0  0
    9.1087   -5.5445   17.8084 C   0  0  0  0  0  0  0  0  0  0  0  0
    4.1707   -9.5574   17.3320 C   0  0  0  0  0  0  0  0  0  0  0  0
    0.5268  -11.8062   19.9887 C   0  0  0  0  0  0  0  0  0  0  0  0
    3.0219   -9.3328   16.7489 C   0  0  0  0  0  0  0  0  0  0  0  0
    5.3850   -8.5267   15.5344 O   0  0  0  0  0  0  0  0  0  0  0  0
    1.9425  -10.6895   18.3878 C   0  0  0  0  0  0  0  0  0  0  0  0
    6.7784   -8.5808   18.3124 C   0  0  0  0  0  0  0  0  0  0  0  0
  1  2  1  0
  1 25  1  0
  2 18  1  0
  3  8  4  0
  3  9  4  0
  3 23  4  0
  4  7  4  0
  4 16  4  0
  4 33  4  0
  5 11  2  0
  6 19  1  0
  7 24  4  0
  9 14  4  0
 10 16  4  0
 10 29  1  0
 11 13  1  0
 11 28  1  0
 13 19  1  0
 14 20  1  0
 14 28  4  0
 17 31  4  0
 17 33  4  0
 21 22  1  0
 21 32  1  0
 23 28  4  0
 24 30  4  0
 27 30  4  0
 27 33  4  0
 29 31  4  0
M  END
$$$$

 Created by Python create_sdf_string function

 34107  0  0  0  0  0  0  0  0999 V2000
    9.8044   -2.7176   25.6997 C   0  0  0  0  0  0  0  0  0  0  0  0
    9.6325   -7.5597   18.2652 C   0  0  0  0  0  0  0  0  0  0  0  0
    3.2487  -11.5280   18.5851 C   0  0  0  0  0  0  0  0  0  0  0  0
    8.3242   -5.2056   15.6748 O   0  0  0  0  0  0  0  0  0  0  0  0
    8.0280   -8.6605   15.1103 Cl  0  0  0  0  0  0  0  0  0  0  0  0
    2.7841  -11.6450   19.9731 C   0  0  0  0  0  0  0  0  0  0  0  0
   10.7871   -8.9301   18.0701 N   0  0  0  0  0  0  0  0  0  0  0  0
   10.7136   -4.4979   18.8950 O   0  0  0  0  0  0  0  0  0  0  0  0
    5.1798   -9.5839   17.7306 C   0  0  0  0  0  0  0  0  0  0  0  0
    8.2631   -4.8886   16.5959 C   0  0  0  0  0  0  0  0  0  0  0  0
    6.1205  -10.2407   15.1247 C   0  0  0  0  0  0  0  0  0  0  0  0
    9.7218   -4.7166   18.7119 C   0  0  0  0  0  0  0  0  0  0  0  0
    6.4889   -7.5453   18.2686 O   0  0  0  0  0  0  0  0  0  0  0  0
    3.8333  -10.7570   18.4580 C   0  0  0  0  0  0  0  0  0  0  0  0
    2.2579  -10.2016   17.9241 N   0  0  0  0  0  0  0  0  0  0  0  0
   10.1966   -2.5869   26.6679 C   0  0  0  0  0  0  0  0  0  0  0  0
    8.1548   -8.1025   15.2681 O   0  0  0  0  0  0  0  0  0  0  0  0
    6.6078   -7.6482   15.1415 C   0  0  0  0  0  0  0  0  0  0  0  0
    7.4250   -7.8157   15.1673 O   0  0  0  0  0  0  0  0  0  0  0  0
    1.4271  -12.2053   20.0553 C   0  0  0  0  0  0  0  0  0  0  0  0
    9.8356   -0.6279   24.9627 C   0  0  0  0  0  0  0  0  0  0  0  0
    8.6500   -7.8349   18.2228 O   0  0  0  0  0  0  0  0  0  0  0  0
    1.3836  -11.2347   18.3542 N   0  0  0  0  0  0  0  0  0  0  0  0
    9.4697   -5.2948   18.0146 C   0  0  0  0  0  0  0  0  0  0  0  0
    0.3861  -11.6655   20.2746 C   0  0  0  0  0  0  0  0  0  0  0  0
    3.3461   -9.6667   17.2943 C   0  0  0  0  0  0  0  0  0  0  0  0
    5.0827   -7.5339   14.5901 O   0  0  0  0  0  0  0  0  0  0  0  0
    2.8584  -11.1778   18.3532 C   0  0  0  0  0  0  0  0  0  0  0  0
    7.8323   -7.4485   19.0797 F   0  0  0  0  0  0  0  0  0  0  0  0
    8.7671   -1.8488   24.6820 He  0  0  0  0  0  0  0  0  0  0  0  0
    7.5478   -6.8814   15.8394 He  0  0  0  0  0  0  0  0  0  0  0  0
   10.2061   -3.0756   18.1549 He  0  0  0  0  0  0  0  0  0  0  0  0
    9.6785   -5.5652   18.3735 He  0  0  0  0  0  0  0  0  0  0  0  0
    4.8181   -9.9422   18.0795 He  0  0  0  0  0  0  0  0  0  0  0  0
  1  5  1  0
  1  7  4  0
  1  9  1  0
  1 16  1  0
  1 19  1  0
  1 20  2  0
  2  7  4  0
  2  8  4  0
  2  9  4  0
  2 10  3  0
  2 21  4  0
  2 22  4  0
  2 26  2  0
  2 27  1  0
  2 29  3  0
  3  6  4  0
  3  7  1  0
  3 14  4  0
  3 15  1  0
  3 28  3  0
  3 29  1  0
  4  5  3  0
  4 10  2  0
  4 19  4  0
  4 20  4  0
  4 24  4  0
  5  7  3  0
  5  8  3  0
  5 17  1  0
  5 22  4  0
  6  7  2  0
  6  8  4  0
  6 11  3  0
  6 15  3  0
  6 20  4  0
  6 22  2  0
  6 24  3  0
  6 25  3  0
  7  8  3  0
  7 12  2  0
  7 14  1  0
  7 16  3  0
  7 20  3  0
  7 23  2  0
  7 26  2  0
  7 28  2  0
  7 29  4  0
  8  9  2  0
  8 14  2  0
  8 16  3  0
  8 18  2  0
  8 19  1  0
  8 26  3  0
  9 10  4  0
  9 14  4  0
  9 22  3  0
  9 23  2  0
  9 24  1  0
  9 26  1  0
  9 29  1  0
 10 17  2  0
 10 21  4  0
 10 22  3  0
 10 24  1  0
 10 28  3  0
 11 12  1  0
 11 15  3  0
 11 16  2  0
 11 18  2  0
 11 19  1  0
 11 28  3  0
 11 29  1  0
 12 18  3  0
 12 24  3  0
 12 29  1  0
 13 22  2  0
 13 24  4  0
 13 28  4  0
 14 16  4  0
 14 19  2  0
 14 22  3  0
 14 28  4  0
 15 17  1  0
 15 19  1  0
 15 23  3  0
 15 24  3  0
 15 25  4  0
 15 26  4  0
 15 29  4  0
 16 19  2  0
 16 22  4  0
 17 18  3  0
 17 22  1  0
 17 24  1  0
 17 29  3  0
 18 19  2  0
 18 22  1  0
 18 29  3  0
 20 25  4  0
 20 27  3  0
 22 24  3  0
 22 25  4  0
 23 26  4  0
 23 28  4  0
 24 28  4  0
 25 26  2  0
 25 27  3  0
M  END
$$$$

 Created by Python create_sdf_string function

 34 31  0  0  0  0  0  0  0  0999 V2000
    9.3048   -1.7952   24.6937 C   0  0  0  0  0  0  0  0  0  0  0  0
    9.6430   -2.8837   25.5783 C   0  0  0  0  0  0  0  0  0  0  0  0
    9.8082   -7.5163   18.5723 C   0  0  0  0  0  0  0  0  0  0  0  0
    3.1044  -11.3104   19.0199 C   0  0  0  0  0  0  0  0  0  0  0  0
    8.3709   -4.4779   15.8214 O   0  0  0  0  0  0  0  0  0  0  0  0
    7.9558   -8.6735   15.1154 C   0  0  0  0  0  0  0  0  0  0  0  0
    2.7695  -12.1747   20.1116 C   0  0  0  0  0  0  0  0  0  0  0  0
    9.9760   -7.9459   18.4115 C   0  0  0  0  0  0  0  0  0  0  0  0
   10.7778   -4.5833   19.5596 O   0  0  0  0  0  0  0  0  0  0  0  0
    5.2292   -9.7653   17.7139 C   0  0  0  0  0  0  0  0  0  0  0  0
    8.5989   -5.3209   16.5447 C   0  0  0  0  0  0  0  0  0  0  0  0
    6.1089   -9.4683   15.6331 C   0  0  0  0  0  0  0  0  0  0  0  0
    7.8072   -6.6408   16.1366 C   0  0  0  0  0  0  0  0  0  0  0  0
   10.0664   -4.5401   18.4146 C   0  0  0  0  0  0  0  0  0  0  0  0
    6.3467   -7.6289   18.2838 O   0  0  0  0  0  0  0  0  0  0  0  0
    4.3358  -11.0117   18.6623 C   0  0  0  0  0  0  0  0  0  0  0  0
    2.3134   -9.8768   17.2791 N   0  0  0  0  0  0  0  0  0  0  0  0
   10.2497   -2.6615   26.8329 C   0  0  0  0  0  0  0  0  0  0  0  0
    8.1483   -7.8021   15.5271 C   0  0  0  0  0  0  0  0  0  0  0  0
   10.2603   -3.3452   17.9290 N   0  0  0  0  0  0  0  0  0  0  0  0
    6.0622   -7.8956   15.3767 C   0  0  0  0  0  0  0  0  0  0  0  0
    6.8523   -8.1631   15.5255 C   0  0  0  0  0  0  0  0  0  0  0  0
    9.8142   -6.0558   18.5448 C   0  0  0  0  0  0  0  0  0  0  0  0
    1.6345  -12.2543   20.5052 C   0  0  0  0  0  0  0  0  0  0  0  0
    9.7053   -0.4912   24.8575 C   0  0  0  0  0  0  0  0  0  0  0  0
    8.2034   -7.3565   17.4036 C   0  0  0  0  0  0  0  0  0  0  0  0
    0.9077  -11.0301   18.6692 N   0  0  0  0  0  0  0  0  0  0  0  0
    9.3529   -5.4151   17.7063 C   0  0  0  0  0  0  0  0  0  0  0  0
    4.7444   -9.5527   17.4969 C   0  0  0  0  0  0  0  0  0  0  0  0
    0.6127  -11.8366   19.7814 C   0  0  0  0  0  0  0  0  0  0  0  0
    3.5322   -9.2974   16.9541 C   0  0  0  0  0  0  0  0  0  0  0  0
    5.1031   -7.4387   14.9151 O   0  0  0  0  0  0  0  0  0  0  0  0
    2.2155  -10.7733   18.3488 C   0  0  0  0  0  0  0  0  0  0  0  0
    7.4553   -7.9655   17.8661 C   0  0  0  0  0  0  0  0  0  0  0  0
  1  2  1  0
  1 25  1  0
  2 18  1  0
  3  8  4  0
  3 23  4  0
  4  7  4  0
  4 16  4  0
  4 33  4  0
  5 11  2  0
  6 19  1  0
  7 24  4  0
  9 14  2  0
 10 16  4  0
 10 29  4  0
 11 13  1  0
 11 28  1  0
 12 21  1  0
 12 22  1  0
 13 19  1  0
 13 26  1  0
 14 20  1  0
 14 28  1  0
 15 34  1  0
 17 31  4  0
 17 33  4  0
 21 22  1  0
 21 32  1  0
 24 30  4  0
 27 30  4  0
 27 33  4  0
 29 31  4  0
M  END
$$$$

 Created by Python create_sdf_string function

 34 74  0  0  0  0  0  0  0  0999 V2000
    9.3317   -1.8400   24.4063 C   0  0  0  0  0  0  0  0  0  0  0  0
   10.1304   -3.4313   25.8952 C   0  0  0  0  0  0  0  0  0  0  0  0
    9.2991   -7.2882   18.5260 C   0  0  0  0  0  0  0  0  0  0  0  0
    3.6259  -11.2447   18.8105 C   0  0  0  0  0  0  0  0  0  0  0  0
    8.7597   -4.3095   15.7316 O   0  0  0  0  0  0  0  0  0  0  0  0
    7.7547   -8.1812   15.3230 C   0  0  0  0  0  0  0  0  0  0  0  0
    2.6888  -11.5729   20.3244 C   0  0  0  0  0  0  0  0  0  0  0  0
    9.8593   -9.9465   18.0206 N   0  0  0  0  0  0  0  0  0  0  0  0
   10.2826   -5.1165   19.3061 O   0  0  0  0  0  0  0  0  0  0  0  0
    5.4570  -10.4268   17.6353 P   0  0  0  0  0  0  0  0  0  0  0  0
   10.4121   -4.2974   18.6305 C   0  0  0  0  0  0  0  0  0  0  0  0
    6.2384   -7.1018   17.6872 O   0  0  0  0  0  0  0  0  0  0  0  0
    4.3585  -11.2495   18.4028 C   0  0  0  0  0  0  0  0  0  0  0  0
    2.5560   -9.8161   17.3223 N   0  0  0  0  0  0  0  0  0  0  0  0
    7.8833   -7.8599   15.7573 C   0  0  0  0  0  0  0  0  0  0  0  0
    6.7859   -7.7231   15.2481 O   0  0  0  0  0  0  0  0  0  0  0  0
    1.9193  -11.9551   20.7744 C   0  0  0  0  0  0  0  0  0  0  0  0
   10.1511   -0.6405   25.0532 C   0  0  0  0  0  0  0  0  0  0  0  0
    9.2682   -7.0653   16.0038 P   0  0  0  0  0  0  0  0  0  0  0  0
    9.6551   -4.9320   17.2631 C   0  0  0  0  0  0  0  0  0  0  0  0
    5.1870   -9.9002   17.0630 C   0  0  0  0  0  0  0  0  0  0  0  0
    1.0082  -11.8684   20.0148 C   0  0  0  0  0  0  0  0  0  0  0  0
    3.5794   -9.5692   16.9581 C   0  0  0  0  0  0  0  0  0  0  0  0
    5.0411   -7.6414   14.4194 O   0  0  0  0  0  0  0  0  0  0  0  0
    2.3743  -10.8459   18.1903 S   0  0  0  0  0  0  0  0  0  0  0  0
    7.4968   -8.1281   16.9911 C   0  0  0  0  0  0  0  0  0  0  0  0
    9.0453   -5.4199   16.3308 He  0  0  0  0  0  0  0  0  0  0  0  0
    7.3792   -7.5728   14.7281 He  0  0  0  0  0  0  0  0  0  0  0  0
    7.1345   -5.8090   16.7496 He  0  0  0  0  0  0  0  0  0  0  0  0
   10.4621   -2.5184   26.5081 He  0  0  0  0  0  0  0  0  0  0  0  0
   10.4412   -2.8642   17.9161 He  0  0  0  0  0  0  0  0  0  0  0  0
    7.2795   -8.7734   12.6328 He  0  0  0  0  0  0  0  0  0  0  0  0
    9.4757   -5.9550   17.8781 He  0  0  0  0  0  0  0  0  0  0  0  0
    0.6539  -11.2745   18.0247 He  0  0  0  0  0  0  0  0  0  0  0  0
  1  2  1  0
  1  4  3  0
  1  8  1  0
  1 10  1  0
  1 14  4  0
  1 18  1  0
  2  3  2  0
  2  6  2  0
  2 26  4  0
  3  6  1  0
  3  7  1  0
  3  8  2  0
  3 12  2  0
  3 19  3  0
  4  7  4  0
  4 14  1  0
  4 19  3  0
  4 20  3  0
  4 25  4  0
  5 10  1  0
  5 16  1  0
  5 19  2  0
  5 21  2  0
  6 14  1  0
  6 15  1  0
  6 19  4  0
  6 21  3  0
  6 23  4  0
  7  8  1  0
  7 17  4  0
  7 23  4  0
  7 25  4  0
  8 11  1  0
  8 14  4  0
  8 15  3  0
  8 19  4  0
  8 20  3  0
  8 24  1  0
  8 25  1  0
  9 11  2  0
  9 14  3  0
 10 12  2  0
 10 13  4  0
 10 18  3  0
 10 21  3  0
 10 26  1  0
 11 12  4  0
 11 14  2  0
 11 16  2  0
 11 17  4  0
 11 20  3  0
 11 21  4  0
 11 26  1  0
 12 19  3  0
 12 20  4  0
 12 26  1  0
 13 15  2  0
 14 23  4  0
 14 25  4  0
 15 16  4  0
 15 26  2  0
 16 21  3  0
 16 24  1  0
 17 19  1  0
 18 24  1  0
 19 21  3  0
 19 22  3  0
 19 23  1  0
 19 25  4  0
 19 26  1  0
 20 22  4  0
 21 23  4  0
 22 23  4  0
 25 26  1  0
M  END
$$$$

 Created by Python create_sdf_string function

 34 29  0  0  0  0  0  0  0  0999 V2000
    9.6829   -2.0029   24.5544 C   0  0  0  0  0  0  0  0  0  0  0  0
    9.9575   -3.2020   25.6165 C   0  0  0  0  0  0  0  0  0  0  0  0
    9.3722   -7.3216   18.4231 C   0  0  0  0  0  0  0  0  0  0  0  0
    3.2404  -11.1689   18.8949 C   0  0  0  0  0  0  0  0  0  0  0  0
    8.7606   -3.9743   15.7330 O   0  0  0  0  0  0  0  0  0  0  0  0
    8.0984   -8.3236   15.4368 C   0  0  0  0  0  0  0  0  0  0  0  0
    2.9164  -11.9233   20.0112 C   0  0  0  0  0  0  0  0  0  0  0  0
    8.8946   -8.6856   17.7285 O   0  0  0  0  0  0  0  0  0  0  0  0
   10.5313   -4.8636   19.6305 O   0  0  0  0  0  0  0  0  0  0  0  0
    5.4018  -10.0249   17.7197 C   0  0  0  0  0  0  0  0  0  0  0  0
    8.9607   -4.9167   16.4626 C   0  0  0  0  0  0  0  0  0  0  0  0
    6.9611   -7.4354   15.2619 C   0  0  0  0  0  0  0  0  0  0  0  0
    7.6277   -6.0363   16.4306 C   0  0  0  0  0  0  0  0  0  0  0  0
   10.3830   -4.3472   18.4792 C   0  0  0  0  0  0  0  0  0  0  0  0
    6.3336   -7.3219   17.8753 O   0  0  0  0  0  0  0  0  0  0  0  0
    4.6529  -10.8165   18.4960 C   0  0  0  0  0  0  0  0  0  0  0  0
    2.5227   -9.8061   17.1091 N   0  0  0  0  0  0  0  0  0  0  0  0
   10.5775   -2.5974   26.8088 C   0  0  0  0  0  0  0  0  0  0  0  0
    7.8474   -7.6890   15.8766 C   0  0  0  0  0  0  0  0  0  0  0  0
   10.7102   -3.0901   18.0846 N   0  0  0  0  0  0  0  0  0  0  0  0
    5.9312   -8.0715   15.6214 C   0  0  0  0  0  0  0  0  0  0  0  0
    7.6034   -9.1161   14.5613 O   0  0  0  0  0  0  0  0  0  0  0  0
    9.5599   -6.1930   17.9564 C   0  0  0  0  0  0  0  0  0  0  0  0
    1.6937  -12.0679   20.4281 C   0  0  0  0  0  0  0  0  0  0  0  0
   10.0167   -0.6746   24.9868 C   0  0  0  0  0  0  0  0  0  0  0  0
    8.5387   -7.0310   16.5291 C   0  0  0  0  0  0  0  0  0  0  0  0
    0.9376  -11.0897   18.5472 C   0  0  0  0  0  0  0  0  0  0  0  0
    9.7801   -5.1758   17.4001 C   0  0  0  0  0  0  0  0  0  0  0  0
    4.8670   -9.2805   16.9302 C   0  0  0  0  0  0  0  0  0  0  0  0
    0.6778  -11.7309   19.6540 C   0  0  0  0  0  0  0  0  0  0  0  0
    3.5624   -9.2946   16.6148 C   0  0  0  0  0  0  0  0  0  0  0  0
    5.1190   -7.7655   14.8532 O   0  0  0  0  0  0  0  0  0  0  0  0
    2.2305  -10.7172   18.1969 C   0  0  0  0  0  0  0  0  0  0  0  0
    7.1144   -7.9530   17.0511 C   0  0  0  0  0  0  0  0  0  0  0  0
  1  2  1  0
  1 25  1  0
  2 18  1  0
  3  8  1  0
  3 23  1  0
  4  7  4  0
  4 16  4  0
  4 33  4  0
  5 11  2  0
  6 19  1  0
  7 24  4  0
  9 14  2  0
 10 16  4  0
 10 29  4  0
 11 13  1  0
 11 28  1  0
 12 21  1  0
 13 26  1  0
 14 20  1  0
 14 28  1  0
 15 34  1  0
 17 31  4  0
 17 33  4  0
 21 32  1  0
 23 28  1  0
 24 30  4  0
 27 30  4  0
 27 33  4  0
 29 31  4  0
M  END
$$$$

 Created by Python create_sdf_string function

 34 88  0  0  0  0  0  0  0  0999 V2000
    9.8495   -2.1921   24.9455 C   0  0  0  0  0  0  0  0  0  0  0  0
    9.8706   -3.5301   25.4900 C   0  0  0  0  0  0  0  0  0  0  0  0
    9.2606   -6.2040   17.9594 C   0  0  0  0  0  0  0  0  0  0  0  0
    3.2918  -10.7383   19.0483 Cl  0  0  0  0  0  0  0  0  0  0  0  0
    9.0109   -3.6167   16.2784 O   0  0  0  0  0  0  0  0  0  0  0  0
    8.2902   -8.1493   14.5270 C   0  0  0  0  0  0  0  0  0  0  0  0
    7.1753   -8.8755   15.3710 F   0  0  0  0  0  0  0  0  0  0  0  0
   11.0865   -4.4239   19.9723 Br  0  0  0  0  0  0  0  0  0  0  0  0
    5.9581   -9.9585   17.7047 C   0  0  0  0  0  0  0  0  0  0  0  0
    8.3409   -5.4560   15.6449 C   0  0  0  0  0  0  0  0  0  0  0  0
    7.5161   -6.0039   17.1501 O   0  0  0  0  0  0  0  0  0  0  0  0
    9.9390   -4.0144   18.0789 C   0  0  0  0  0  0  0  0  0  0  0  0
    5.7375   -8.0171   18.2700 C   0  0  0  0  0  0  0  0  0  0  0  0
    2.5137  -10.1607   17.0595 N   0  0  0  0  0  0  0  0  0  0  0  0
   11.1873   -2.8731   27.0309 C   0  0  0  0  0  0  0  0  0  0  0  0
   11.1113   -3.2018   17.7563 N   0  0  0  0  0  0  0  0  0  0  0  0
    6.4304   -8.1398   15.7229 Br  0  0  0  0  0  0  0  0  0  0  0  0
    7.0223  -10.0721   14.5825 O   0  0  0  0  0  0  0  0  0  0  0  0
   10.3872   -1.0592   25.2674 F   0  0  0  0  0  0  0  0  0  0  0  0
    9.5532   -5.5074   17.2918 C   0  0  0  0  0  0  0  0  0  0  0  0
    5.1457   -9.4935   17.2090 C   0  0  0  0  0  0  0  0  0  0  0  0
    1.4763  -11.5597   20.1986 P   0  0  0  0  0  0  0  0  0  0  0  0
    3.8160   -9.3429   16.7194 C   0  0  0  0  0  0  0  0  0  0  0  0
    5.2105   -6.8162   15.2320 F   0  0  0  0  0  0  0  0  0  0  0  0
    2.2065  -10.1892   18.1094 C   0  0  0  0  0  0  0  0  0  0  0  0
    7.0315   -7.9382   17.4296 N   0  0  0  0  0  0  0  0  0  0  0  0
    2.5627  -12.4646   20.1781 He  0  0  0  0  0  0  0  0  0  0  0  0
    6.7864   -6.9008   15.2961 He  0  0  0  0  0  0  0  0  0  0  0  0
    4.6665  -10.9629   18.2774 He  0  0  0  0  0  0  0  0  0  0  0  0
    8.0209   -7.2296   15.8859 He  0  0  0  0  0  0  0  0  0  0  0  0
   10.3989   -5.7833   17.7945 He  0  0  0  0  0  0  0  0  0  0  0  0
    1.6416  -11.3721   20.9144 He  0  0  0  0  0  0  0  0  0  0  0  0
    9.1119   -8.7031   16.9224 He  0  0  0  0  0  0  0  0  0  0  0  0
    0.6646  -10.6964   18.3471 He  0  0  0  0  0  0  0  0  0  0  0  0
  1  2  1  0
  1  5  3  0
  1  6  2  0
  1  9  4  0
  1 13  2  0
  1 14  4  0
  1 19  1  0
  2  7  3  0
  2  8  4  0
  2 10  1  0
  2 12  2  0
  2 15  1  0
  2 16  2  0
  3  4  1  0
  3 18  2  0
  4  7  2  0
  4  8  2  0
  4 14  1  0
  4 15  2  0
  4 20  2  0
  4 21  3  0
  4 23  4  0
  4 26  2  0
  5  8  1  0
  5 10  2  0
  5 13  2  0
  5 17  1  0
  5 18  3  0
  5 19  4  0
  5 22  1  0
  6  9  3  0
  6 18  2  0
  6 25  4  0
  6 26  4  0
  7  8  2  0
  7  9  4  0
  7 12  3  0
  7 14  4  0
  7 16  4  0
  7 17  2  0
  7 19  2  0
  7 20  2  0
  7 22  1  0
  7 23  1  0
  7 24  3  0
  7 25  4  0
  8 12  2  0
  8 21  3  0
  8 23  3  0
  9 11  4  0
  9 17  2  0
  9 21  4  0
  9 22  3  0
  9 24  2  0
  9 26  1  0
 10 11  2  0
 10 13  4  0
 10 20  1  0
 11 12  3  0
 11 13  4  0
 11 15  3  0
 11 17  2  0
 11 21  2  0
 11 26  3  0
 12 16  1  0
 12 21  3  0
 12 26  4  0
 13 26  3  0
 14 23  4  0
 15 16  1  0
 15 20  4  0
 15 22  3  0
 16 19  4  0
 17 23  3  0
 17 24  2  0
 17 26  4  0
 18 20  3  0
 18 21  3  0
 18 24  3  0
 19 21  2  0
 19 26  1  0
 20 24  3  0
 21 23  4  0
 21 24  3  0
 21 26  1  0
 22 24  4  0
 22 26  1  0
 24 26  4  0
M  END
$$$$

 Created by Python create_sdf_string function

 34 31  0  0  0  0  0  0  0  0999 V2000
    9.7514   -2.1854   24.7367 C   0  0  0  0  0  0  0  0  0  0  0  0
   10.0288   -3.4278   25.6207 C   0  0  0  0  0  0  0  0  0  0  0  0
    9.4778   -6.8146   18.1538 C   0  0  0  0  0  0  0  0  0  0  0  0
    3.1951  -11.0956   18.8931 C   0  0  0  0  0  0  0  0  0  0  0  0
    8.8662   -3.9376   15.8247 O   0  0  0  0  0  0  0  0  0  0  0  0
    8.3170   -8.0086   15.1063 C   0  0  0  0  0  0  0  0  0  0  0  0
    2.8881  -11.9160   20.0057 C   0  0  0  0  0  0  0  0  0  0  0  0
    6.7610   -8.8795   15.9211 C   0  0  0  0  0  0  0  0  0  0  0  0
   10.7999   -4.5715   19.7133 O   0  0  0  0  0  0  0  0  0  0  0  0
    5.4439   -9.9819   17.8001 C   0  0  0  0  0  0  0  0  0  0  0  0
    8.7793   -5.1214   16.3307 C   0  0  0  0  0  0  0  0  0  0  0  0
    7.0821   -6.8884   15.5667 C   0  0  0  0  0  0  0  0  0  0  0  0
    7.2521   -6.0321   17.1411 O   0  0  0  0  0  0  0  0  0  0  0  0
   10.4136   -4.1667   18.1251 C   0  0  0  0  0  0  0  0  0  0  0  0
    6.0818   -7.7208   18.2931 C   0  0  0  0  0  0  0  0  0  0  0  0
    4.5722  -10.9594   18.6180 C   0  0  0  0  0  0  0  0  0  0  0  0
    2.4338   -9.7326   17.0945 N   0  0  0  0  0  0  0  0  0  0  0  0
   11.0567   -2.8793   26.8900 C   0  0  0  0  0  0  0  0  0  0  0  0
    8.3010   -6.7438   15.8508 C   0  0  0  0  0  0  0  0  0  0  0  0
   10.8628   -3.0894   17.7366 N   0  0  0  0  0  0  0  0  0  0  0  0
    6.0106   -8.1398   15.5779 C   0  0  0  0  0  0  0  0  0  0  0  0
    7.0409   -9.8623   15.0360 O   0  0  0  0  0  0  0  0  0  0  0  0
    9.9356   -5.8926   18.1992 C   0  0  0  0  0  0  0  0  0  0  0  0
    1.6404  -11.9323   20.4280 C   0  0  0  0  0  0  0  0  0  0  0  0
   10.3969   -0.9323   25.2830 C   0  0  0  0  0  0  0  0  0  0  0  0
    8.6621   -8.3513   17.1967 C   0  0  0  0  0  0  0  0  0  0  0  0
    0.9423  -10.7477   18.6007 C   0  0  0  0  0  0  0  0  0  0  0  0
    9.4582   -5.1165   17.2545 C   0  0  0  0  0  0  0  0  0  0  0  0
    4.6861   -9.5534   17.3496 C   0  0  0  0  0  0  0  0  0  0  0  0
    0.6684  -11.3946   19.7607 C   0  0  0  0  0  0  0  0  0  0  0  0
    3.6536   -9.3093   16.7709 C   0  0  0  0  0  0  0  0  0  0  0  0
    5.2515   -6.9386   15.5363 C   0  0  0  0  0  0  0  0  0  0  0  0
    2.2217  -10.5380   18.1847 C   0  0  0  0  0  0  0  0  0  0  0  0
    6.3534   -8.2465   17.2324 C   0  0  0  0  0  0  0  0  0  0  0  0
  1  2  1  0
  1 25  1  0
  2 18  1  0
  3 23  1  0
  4  7  4  0
  4 16  4  0
  4 33  4  0
  5 11  2  0
  6 12  1  0
  6 19  1  0
  7 24  4  0
  8 21  1  0
  8 22  1  0
  9 14  2  0
 10 16  4  0
 10 29  4  0
 11 28  1  0
 12 19  1  0
 12 21  1  0
 14 20  1  0
 14 28  1  0
 15 34  1  0
 17 31  4  0
 17 33  4  0
 21 32  1  0
 23 28  1  0
 24 30  4  0
 27 30  4  0
 27 33  4  0
 29 31  4  0
 29 34  1  0
M  END
$$$$

 Created by Python create_sdf_string function

 34115  0  0  0  0  0  0  0  0999 V2000
    9.5961   -2.7324   25.0729 C   0  0  0  0  0  0  0  0  0  0  0  0
    9.5552   -3.2934   25.2613 C   0  0  0  0  0  0  0  0  0  0  0  0
    9.6764   -7.3403   18.4853 C   0  0  0  0  0  0  0  0  0  0  0  0
    3.4567  -11.0501   18.3310 C   0  0  0  0  0  0  0  0  0  0  0  0
    8.8696   -3.9511   16.5904 O   0  0  0  0  0  0  0  0  0  0  0  0
    7.4657   -7.8603   14.9308 C   0  0  0  0  0  0  0  0  0  0  0  0
    2.7388  -12.3574   20.0711 C   0  0  0  0  0  0  0  0  0  0  0  0
    6.2073   -9.0558   14.9558 C   0  0  0  0  0  0  0  0  0  0  0  0
   10.7605   -4.4739   19.9227 O   0  0  0  0  0  0  0  0  0  0  0  0
    5.4417   -9.5661   18.4413 C   0  0  0  0  0  0  0  0  0  0  0  0
    8.9420   -4.9002   16.3189 C   0  0  0  0  0  0  0  0  0  0  0  0
    6.6555   -7.3392   16.9255 N   0  0  0  0  0  0  0  0  0  0  0  0
    7.4631   -5.8443   16.0193 O   0  0  0  0  0  0  0  0  0  0  0  0
   10.3872   -4.2000   17.8687 C   0  0  0  0  0  0  0  0  0  0  0  0
    5.8255   -7.6820   18.2900 C   0  0  0  0  0  0  0  0  0  0  0  0
    4.3620  -11.0157   18.7429 O   0  0  0  0  0  0  0  0  0  0  0  0
    2.8373   -9.3634   16.9247 N   0  0  0  0  0  0  0  0  0  0  0  0
   10.7002   -2.9601   27.0493 C   0  0  0  0  0  0  0  0  0  0  0  0
    8.1692   -6.9230   15.0625 C   0  0  0  0  0  0  0  0  0  0  0  0
   10.7577   -3.2955   17.4888 N   0  0  0  0  0  0  0  0  0  0  0  0
    6.0780   -8.1681   15.6901 C   0  0  0  0  0  0  0  0  0  0  0  0
    6.9516  -10.1068   13.9645 O   0  0  0  0  0  0  0  0  0  0  0  0
    9.6598   -4.2866   20.2144 N   0  0  0  0  0  0  0  0  0  0  0  0
    1.7880  -12.2681   21.2145 C   0  0  0  0  0  0  0  0  0  0  0  0
   10.6380   -0.6348   25.2373 C   0  0  0  0  0  0  0  0  0  0  0  0
    7.3527   -7.3633   18.0524 O   0  0  0  0  0  0  0  0  0  0  0  0
    8.7804   -5.3148   17.3486 C   0  0  0  0  0  0  0  0  0  0  0  0
    4.3214   -9.1863   17.3530 C   0  0  0  0  0  0  0  0  0  0  0  0
    1.0517  -11.5594   19.2304 C   0  0  0  0  0  0  0  0  0  0  0  0
    1.9710  -10.3449   18.3978 C   0  0  0  0  0  0  0  0  0  0  0  0
    1.4409  -11.1137   18.4535 He  0  0  0  0  0  0  0  0  0  0  0  0
    3.1789   -9.3414   16.5119 He  0  0  0  0  0  0  0  0  0  0  0  0
    6.1846   -6.7357   16.0640 He  0  0  0  0  0  0  0  0  0  0  0  0
    7.1927   -8.1799   16.9469 He  0  0  0  0  0  0  0  0  0  0  0  0
  1  2  1  0
  1  6  2  0
  1  9  4  0
  1 10  4  0
  1 23  2  0
  1 25  1  0
  1 26  4  0
  2  4  2  0
  2  7  4  0
  2  8  2  0
  2 12  2  0
  2 13  2  0
  2 17  2  0
  2 18  1  0
  2 21  3  0
  2 25  2  0
  2 26  3  0
  3  6  4  0
  3  8  3  0
  3 20  3  0
  3 21  2  0
  3 26  3  0
  3 27  3  0
  4  7  4  0
  4  8  2  0
  4 14  3  0
  4 16  4  0
  4 22  1  0
  4 23  3  0
  4 30  4  0
  5  6  1  0
  5  8  4  0
  5 22  1  0
  5 23  3  0
  6 12  1  0
  6 14  1  0
  6 17  3  0
  6 19  1  0
  6 20  4  0
  6 25  3  0
  6 26  4  0
  6 27  2  0
  7 11  3  0
  7 15  2  0
  7 17  4  0
  7 19  2  0
  7 21  3  0
  7 23  3  0
  8 13  4  0
  8 16  2  0
  8 17  4  0
  8 20  3  0
  8 21  1  0
  8 22  2  0
  8 23  2  0
  8 27  1  0
  8 29  1  0
  9 12  3  0
  9 14  2  0
  9 22  4  0
  9 26  1  0
  9 29  2  0
 10 12  3  0
 10 15  4  0
 10 16  4  0
 10 19  3  0
 10 25  2  0
 10 26  2  0
 10 28  2  0
 10 29  4  0
 11 17  1  0
 11 22  4  0
 11 27  1  0
 12 13  1  0
 12 17  1  0
 12 18  2  0
 12 19  2  0
 12 21  4  0
 12 22  1  0
 13 26  1  0
 14 20  1  0
 14 22  3  0
 14 23  1  0
 14 25  4  0
 15 22  4  0
 15 25  4  0
 15 28  3  0
 16 18  3  0
 16 21  1  0
 16 23  4  0
 16 26  4  0
 16 27  2  0
 17 18  4  0
 17 22  3  0
 17 26  4  0
 17 28  4  0
 17 30  4  0
 18 20  2  0
 18 22  1  0
 18 24  3  0
 18 25  1  0
 19 26  1  0
 19 29  2  0
 20 22  2  0
 20 23  2  0
 20 26  1  0
 21 22  4  0
 21 23  1  0
 21 24  4  0
 22 25  2  0
 22 29  2  0
 22 30  3  0
 23 24  3  0
 26 29  4  0
 29 30  4  0
M  END
$$$$

 Created by Python create_sdf_string function

 34 32  0  0  0  0  0  0  0  0999 V2000
    9.7821   -2.3161   24.6371 C   0  0  0  0  0  0  0  0  0  0  0  0
    9.8191   -3.3067   25.5648 C   0  0  0  0  0  0  0  0  0  0  0  0
    9.4031   -6.7099   18.3445 C   0  0  0  0  0  0  0  0  0  0  0  0
    3.2855  -11.0955   19.0528 C   0  0  0  0  0  0  0  0  0  0  0  0
    9.1246   -3.9174   15.9699 O   0  0  0  0  0  0  0  0  0  0  0  0
    7.6641   -8.0042   14.9410 C   0  0  0  0  0  0  0  0  0  0  0  0
    2.9710  -12.0230   20.0226 C   0  0  0  0  0  0  0  0  0  0  0  0
    5.9747   -8.7757   15.4255 C   0  0  0  0  0  0  0  0  0  0  0  0
   10.6757   -4.6264   20.0201 O   0  0  0  0  0  0  0  0  0  0  0  0
    4.8540   -9.6487   18.1202 C   0  0  0  0  0  0  0  0  0  0  0  0
    8.8766   -4.9919   16.5305 C   0  0  0  0  0  0  0  0  0  0  0  0
    7.3576   -7.0522   16.4135 C   0  0  0  0  0  0  0  0  0  0  0  0
    7.7921   -5.7522   16.1254 O   0  0  0  0  0  0  0  0  0  0  0  0
   10.2126   -4.3135   18.5046 C   0  0  0  0  0  0  0  0  0  0  0  0
    6.0214   -8.0694   18.2053 C   0  0  0  0  0  0  0  0  0  0  0  0
    4.5553  -10.6207   18.9326 O   0  0  0  0  0  0  0  0  0  0  0  0
    2.4940   -9.7070   17.0010 N   0  0  0  0  0  0  0  0  0  0  0  0
   10.6264   -2.7733   26.8564 C   0  0  0  0  0  0  0  0  0  0  0  0
    8.5100   -7.3901   14.8815 C   0  0  0  0  0  0  0  0  0  0  0  0
   10.8130   -3.3588   17.7751 N   0  0  0  0  0  0  0  0  0  0  0  0
    5.6707   -8.3750   15.9791 C   0  0  0  0  0  0  0  0  0  0  0  0
    7.1725   -9.7892   14.7750 O   0  0  0  0  0  0  0  0  0  0  0  0
   10.0143   -4.6058   19.6068 C   0  0  0  0  0  0  0  0  0  0  0  0
    1.7032  -12.2703   20.3598 C   0  0  0  0  0  0  0  0  0  0  0  0
   10.4425   -1.0315   25.3675 C   0  0  0  0  0  0  0  0  0  0  0  0
    7.8038   -7.3247   17.6322 C   0  0  0  0  0  0  0  0  0  0  0  0
    0.9840  -10.9894   18.5626 C   0  0  0  0  0  0  0  0  0  0  0  0
    9.4651   -5.4854   17.7946 C   0  0  0  0  0  0  0  0  0  0  0  0
    4.3756   -9.1996   17.0278 C   0  0  0  0  0  0  0  0  0  0  0  0
    0.7260  -11.7606   19.6027 C   0  0  0  0  0  0  0  0  0  0  0  0
    3.2000   -9.1623   16.4273 C   0  0  0  0  0  0  0  0  0  0  0  0
    5.9377   -6.9768   16.1999 C   0  0  0  0  0  0  0  0  0  0  0  0
    2.3144  -10.5991   18.1618 C   0  0  0  0  0  0  0  0  0  0  0  0
    7.3560   -8.0884   16.9438 C   0  0  0  0  0  0  0  0  0  0  0  0
  1  2  1  0
  1 25  1  0
  2 18  1  0
  3 26  1  0
  3 28  1  0
  4  7  4  0
  4 16  4  0
  4 33  4  0
  5 11  2  0
  6 12  1  0
  6 19  1  0
  7 24  4  0
  8 21  1  0
  9 14  2  0
  9 23  1  0
 10 16  4  0
 10 29  4  0
 11 13  1  0
 11 28  1  0
 12 13  1  0
 14 20  1  0
 14 23  1  0
 14 28  1  0
 17 31  4  0
 17 33  4  0
 18 25  1  0
 21 29  1  0
 21 32  1  0
 24 30  4  0
 27 30  4  0
 27 33  4  0
 29 31  4  0
M  END
$$$$

 Created by Python create_sdf_string function

 34105  0  0  0  0  0  0  0  0999 V2000
    8.9748   -2.1852   24.3802 C   0  0  0  0  0  0  0  0  0  0  0  0
    9.8264   -3.4600   25.0874 C   0  0  0  0  0  0  0  0  0  0  0  0
    9.8110   -6.9083   18.5609 C   0  0  0  0  0  0  0  0  0  0  0  0
    3.1573  -11.6271   19.2272 C   0  0  0  0  0  0  0  0  0  0  0  0
    8.7324   -2.9398   16.2708 O   0  0  0  0  0  0  0  0  0  0  0  0
    8.3073   -8.9332   15.2879 C   0  0  0  0  0  0  0  0  0  0  0  0
    3.0767  -11.6777   20.0597 C   0  0  0  0  0  0  0  0  0  0  0  0
    6.2656   -9.5800   14.9537 C   0  0  0  0  0  0  0  0  0  0  0  0
   10.9074   -4.2010   19.4164 S   0  0  0  0  0  0  0  0  0  0  0  0
    4.4462  -10.3563   17.8081 C   0  0  0  0  0  0  0  0  0  0  0  0
    8.5683   -5.1406   16.6425 C   0  0  0  0  0  0  0  0  0  0  0  0
   10.5014   -4.4820   18.5270 C   0  0  0  0  0  0  0  0  0  0  0  0
    6.0069   -7.9591   18.4657 C   0  0  0  0  0  0  0  0  0  0  0  0
    4.8115  -11.2051   19.3659 O   0  0  0  0  0  0  0  0  0  0  0  0
   10.2313   -3.0584   26.3088 C   0  0  0  0  0  0  0  0  0  0  0  0
   11.0622   -3.3655   17.5422 N   0  0  0  0  0  0  0  0  0  0  0  0
    7.2192  -11.8887   16.1753 F   0  0  0  0  0  0  0  0  0  0  0  0
    1.6406  -12.2741   20.1741 C   0  0  0  0  0  0  0  0  0  0  0  0
   10.0414   -1.1001   25.4937 C   0  0  0  0  0  0  0  0  0  0  0  0
    7.3750   -6.6016   18.2171 O   0  0  0  0  0  0  0  0  0  0  0  0
    1.4060  -11.5373   18.6217 C   0  0  0  0  0  0  0  0  0  0  0  0
    9.9823   -5.1128   17.2127 C   0  0  0  0  0  0  0  0  0  0  0  0
    4.3725   -9.5051   16.7741 P   0  0  0  0  0  0  0  0  0  0  0  0
    1.5041  -11.8421   18.8266 F   0  0  0  0  0  0  0  0  0  0  0  0
    2.9100   -9.0744   16.3468 C   0  0  0  0  0  0  0  0  0  0  0  0
    5.7458   -7.6255   16.5538 C   0  0  0  0  0  0  0  0  0  0  0  0
    2.3498  -10.4443   17.8619 O   0  0  0  0  0  0  0  0  0  0  0  0
    7.3097   -6.8184   16.8596 He  0  0  0  0  0  0  0  0  0  0  0  0
    7.9051   -5.4150   15.5830 He  0  0  0  0  0  0  0  0  0  0  0  0
    2.9882  -10.5477   16.7049 He  0  0  0  0  0  0  0  0  0  0  0  0
    8.4856   -7.7136   15.1359 He  0  0  0  0  0  0  0  0  0  0  0  0
    5.3153   -7.8026   15.8296 He  0  0  0  0  0  0  0  0  0  0  0  0
   10.6688   -4.5156   19.9523 He  0  0  0  0  0  0  0  0  0  0  0  0
    8.2826   -7.4755   16.5404 He  0  0  0  0  0  0  0  0  0  0  0  0
  1  2  1  0
  1 19  1  0
  1 20  1  0
  2  4  2  0
  2  8  3  0
  2  9  4  0
  2 12  2  0
  2 14  2  0
  2 17  3  0
  2 20  1  0
  2 23  4  0
  3  4  4  0
  3  8  4  0
  3 11  1  0
  3 15  2  0
  3 17  1  0
  3 18  4  0
  3 22  1  0
  3 27  3  0
  4  6  1  0
  4  7  4  0
  4 11  3  0
  4 12  1  0
  4 14  4  0
  4 17  3  0
  4 19  4  0
  4 27  4  0
  5  9  2  0
  5 11  2  0
  5 17  3  0
  5 20  2  0
  6  9  1  0
  6 11  1  0
  6 20  1  0
  6 21  3  0
  6 22  4  0
  7 18  4  0
  7 21  3  0
  7 22  3  0
  8 10  2  0
  8 11  1  0
  8 13  2  0
  8 14  1  0
  8 15  4  0
  8 20  1  0
  8 23  3  0
  8 24  1  0
  8 25  2  0
  8 27  3  0
  9 11  3  0
  9 12  2  0
  9 15  1  0
  9 17  2  0
  9 18  1  0
  9 20  2  0
  9 27  3  0
 10 12  1  0
 10 14  4  0
 10 22  3  0
 10 23  4  0
 10 25  4  0
 11 12  2  0
 11 13  1  0
 11 20  1  0
 11 22  1  0
 11 24  2  0
 12 16  1  0
 12 17  1  0
 12 20  2  0
 12 22  1  0
 12 23  3  0
 13 17  3  0
 13 18  2  0
 13 19  2  0
 13 20  1  0
 13 23  4  0
 14 17  4  0
 14 21  2  0
 14 23  3  0
 14 24  4  0
 14 26  4  0
 15 17  2  0
 15 19  1  0
 15 21  3  0
 15 24  1  0
 16 17  3  0
 16 20  2  0
 16 26  4  0
 17 19  2  0
 17 21  3  0
 17 22  2  0
 17 23  1  0
 17 24  4  0
 18 20  2  0
 18 24  4  0
 20 23  1  0
 20 26  4  0
 21 22  4  0
 21 24  4  0
 21 25  2  0
 21 27  4  0
 22 25  3  0
 23 25  4  0
 23 27  3  0
 24 26  4  0
M  END
$$$$

 Created by Python create_sdf_string function

 34 34  0  0  0  0  0  0  0  0999 V2000
    9.5189   -2.1105   24.3402 C   0  0  0  0  0  0  0  0  0  0  0  0
   10.0549   -3.4091   24.9179 C   0  0  0  0  0  0  0  0  0  0  0  0
    9.7808   -6.4976   18.3605 C   0  0  0  0  0  0  0  0  0  0  0  0
    3.2153  -11.1884   18.9158 C   0  0  0  0  0  0  0  0  0  0  0  0
    9.0406   -3.5091   16.0388 O   0  0  0  0  0  0  0  0  0  0  0  0
    8.0959   -8.7335   15.1623 C   0  0  0  0  0  0  0  0  0  0  0  0
    2.9088  -12.0056   19.9459 C   0  0  0  0  0  0  0  0  0  0  0  0
    6.6346   -9.1833   15.6252 C   0  0  0  0  0  0  0  0  0  0  0  0
   10.8175   -4.3530   19.7519 C   0  0  0  0  0  0  0  0  0  0  0  0
    4.7753  -10.0869   17.8034 C   0  0  0  0  0  0  0  0  0  0  0  0
    8.9740   -4.7124   16.5323 C   0  0  0  0  0  0  0  0  0  0  0  0
    7.4355   -7.0002   16.8438 C   0  0  0  0  0  0  0  0  0  0  0  0
    7.9557   -5.4240   15.8985 O   0  0  0  0  0  0  0  0  0  0  0  0
   10.5053   -4.2467   18.3581 C   0  0  0  0  0  0  0  0  0  0  0  0
    6.1167   -7.8245   18.3850 C   0  0  0  0  0  0  0  0  0  0  0  0
    4.5298  -10.8040   18.7996 O   0  0  0  0  0  0  0  0  0  0  0  0
    2.2931   -9.8667   17.0328 C   0  0  0  0  0  0  0  0  0  0  0  0
   10.2435   -2.8704   26.3960 C   0  0  0  0  0  0  0  0  0  0  0  0
    8.4579   -7.9653   15.1929 C   0  0  0  0  0  0  0  0  0  0  0  0
   11.0550   -3.2062   17.6217 N   0  0  0  0  0  0  0  0  0  0  0  0
    5.3692   -8.2308   16.0175 C   0  0  0  0  0  0  0  0  0  0  0  0
    6.5418  -10.2211   16.0261 O   0  0  0  0  0  0  0  0  0  0  0  0
   10.3375   -4.8077   19.9541 C   0  0  0  0  0  0  0  0  0  0  0  0
    1.6928  -12.3663   20.1843 C   0  0  0  0  0  0  0  0  0  0  0  0
    9.9206   -1.2292   25.5967 C   0  0  0  0  0  0  0  0  0  0  0  0
    7.7827   -6.9121   17.8864 C   0  0  0  0  0  0  0  0  0  0  0  0
    1.0225  -11.2562   18.2355 C   0  0  0  0  0  0  0  0  0  0  0  0
    9.7542   -5.2829   17.7107 C   0  0  0  0  0  0  0  0  0  0  0  0
    4.4305   -9.3056   16.8412 C   0  0  0  0  0  0  0  0  0  0  0  0
    0.7929  -12.0341   19.3217 C   0  0  0  0  0  0  0  0  0  0  0  0
    3.2419   -9.2609   16.4616 C   0  0  0  0  0  0  0  0  0  0  0  0
    6.1216   -7.5839   16.8025 C   0  0  0  0  0  0  0  0  0  0  0  0
    2.2155  -10.7882   18.0174 C   0  0  0  0  0  0  0  0  0  0  0  0
    8.2395   -7.1881   16.5737 C   0  0  0  0  0  0  0  0  0  0  0  0
  1  2  1  0
  1 25  1  0
  2 18  1  0
  3 28  1  0
  4  7  4  0
  4 16  4  0
  4 33  4  0
  5 11  2  0
  6 19  4  0
  7 24  4  0
  8 21  1  0
  8 22  1  0
  9 14  2  0
  9 23  1  0
 10 16  4  0
 10 29  4  0
 11 13  1  0
 11 28  1  0
 12 32  4  0
 12 34  1  0
 14 20  1  0
 14 28  1  0
 15 26  1  0
 15 32  1  0
 17 31  4  0
 17 33  4  0
 18 25  1  0
 19 34  4  0
 21 29  1  0
 21 32  1  0
 24 30  4  0
 27 30  4  0
 27 33  4  0
 29 31  4  0
M  END
$$$$

 Created by Python create_sdf_string function

 34118  0  0  0  0  0  0  0  0999 V2000
    8.4142   -1.5793   24.9053 Cl  0  0  0  0  0  0  0  0  0  0  0  0
   10.3638   -4.0352   24.8925 C   0  0  0  0  0  0  0  0  0  0  0  0
    9.7960   -6.4254   19.0646 C   0  0  0  0  0  0  0  0  0  0  0  0
    3.5002  -11.0474   18.9405 S   0  0  0  0  0  0  0  0  0  0  0  0
    9.3554   -3.3912   16.0176 I   0  0  0  0  0  0  0  0  0  0  0  0
    8.3285   -8.7387   14.8175 C   0  0  0  0  0  0  0  0  0  0  0  0
    2.8014  -11.6853   19.9138 C   0  0  0  0  0  0  0  0  0  0  0  0
    7.3542   -8.6424   15.8097 N   0  0  0  0  0  0  0  0  0  0  0  0
   10.7789   -4.0361   20.1958 C   0  0  0  0  0  0  0  0  0  0  0  0
    4.9647  -10.4090   17.8082 C   0  0  0  0  0  0  0  0  0  0  0  0
    9.5374   -5.2196   16.8461 C   0  0  0  0  0  0  0  0  0  0  0  0
    8.2873   -5.5486   15.9165 O   0  0  0  0  0  0  0  0  0  0  0  0
    9.8303   -4.2106   18.4045 C   0  0  0  0  0  0  0  0  0  0  0  0
    5.5640   -7.4617   18.4702 F   0  0  0  0  0  0  0  0  0  0  0  0
    4.6603  -10.5909   19.3548 O   0  0  0  0  0  0  0  0  0  0  0  0
    2.0138   -9.6184   17.2116 C   0  0  0  0  0  0  0  0  0  0  0  0
   10.3914   -3.1278   26.6672 C   0  0  0  0  0  0  0  0  0  0  0  0
    8.6035   -9.1752   15.4001 C   0  0  0  0  0  0  0  0  0  0  0  0
   10.9804   -2.6737   17.4657 O   0  0  0  0  0  0  0  0  0  0  0  0
    5.8086   -8.3530   16.5700 C   0  0  0  0  0  0  0  0  0  0  0  0
    7.6451  -10.8462   16.0306 S   0  0  0  0  0  0  0  0  0  0  0  0
    9.0009   -4.7502   18.1975 N   0  0  0  0  0  0  0  0  0  0  0  0
    2.0780  -12.2972   20.8333 C   0  0  0  0  0  0  0  0  0  0  0  0
    8.7130   -5.5113   19.1910 C   0  0  0  0  0  0  0  0  0  0  0  0
    1.4729  -11.5976   17.6178 S   0  0  0  0  0  0  0  0  0  0  0  0
    9.6940   -5.7773   17.3256 C   0  0  0  0  0  0  0  0  0  0  0  0
    2.9948   -8.9835   16.2979 C   0  0  0  0  0  0  0  0  0  0  0  0
    5.8780   -7.6040   17.4258 C   0  0  0  0  0  0  0  0  0  0  0  0
    2.3727  -10.8167   17.5715 C   0  0  0  0  0  0  0  0  0  0  0  0
    8.5102   -9.2436   16.7306 C   0  0  0  0  0  0  0  0  0  0  0  0
    7.6556   -7.3973   15.3252 He  0  0  0  0  0  0  0  0  0  0  0  0
   10.0093   -0.7218   25.2726 He  0  0  0  0  0  0  0  0  0  0  0  0
    4.8763   -9.3346   15.9382 He  0  0  0  0  0  0  0  0  0  0  0  0
    0.7988  -12.8833   19.3629 He  0  0  0  0  0  0  0  0  0  0  0  0
  1  2  1  0
  1 12  4  0
  1 20  3  0
  1 26  1  0
  1 27  3  0
  1 30  4  0
  2  3  2  0
  2  6  1  0
  2 10  3  0
  2 17  1  0
  2 18  2  0
  2 19  2  0
  2 21  3  0
  2 24  1  0
  2 26  1  0
  2 27  2  0
  3  9  3  0
  3 15  4  0
  3 19  2  0
  3 21  2  0
  3 22  2  0
  3 24  3  0
  3 26  1  0
  3 30  3  0
  4  5  1  0
  4  7  1  0
  4 15  4  0
  4 16  1  0
  4 21  1  0
  4 22  2  0
  4 24  2  0
  4 28  4  0
  4 29  2  0
  5  8  4  0
  5 11  2  0
  5 19  3  0
  5 22  4  0
  5 24  3  0
  5 27  1  0
  6  8  2  0
  6 17  4  0
  6 18  4  0
  6 21  2  0
  6 30  2  0
  7 13  3  0
  7 23  4  0
  7 24  4  0
  7 26  3  0
  8  9  2  0
  8 10  2  0
  8 20  4  0
  8 22  4  0
  8 28  2  0
  8 29  3  0
  9 13  2  0
  9 16  3  0
  9 18  3  0
  9 20  1  0
  9 21  1  0
  9 22  4  0
 10 13  2  0
 10 19  3  0
 10 24  2  0
 11 15  1  0
 11 18  1  0
 11 20  1  0
 11 22  4  0
 11 24  3  0
 11 28  4  0
 12 17  1  0
 12 20  3  0
 12 21  4  0
 12 22  3  0
 12 24  1  0
 13 20  1  0
 13 25  3  0
 13 26  1  0
 14 16  2  0
 14 20  2  0
 14 23  4  0
 14 28  3  0
 15 20  1  0
 15 21  2  0
 15 22  3  0
 15 24  1  0
 15 30  1  0
 16 19  3  0
 16 21  3  0
 16 23  2  0
 16 24  3  0
 16 27  4  0
 16 29  4  0
 17 21  1  0
 18 21  2  0
 18 24  2  0
 18 27  4  0
 18 30  1  0
 19 24  1  0
 19 29  4  0
 20 21  2  0
 20 23  2  0
 20 24  1  0
 20 25  2  0
 20 28  1  0
 21 22  3  0
 21 27  1  0
 22 23  4  0
 22 24  3  0
 22 26  2  0
 22 27  1  0
 22 30  3  0
 23 29  1  0
 24 25  2  0
 24 26  3  0
 24 29  1  0
 25 27  3  0
 25 29  4  0
 26 30  2  0
M  END
$$$$

 Created by Python create_sdf_string function

 34 29  0  0  0  0  0  0  0  0999 V2000
    9.0861   -1.8261   24.8937 C   0  0  0  0  0  0  0  0  0  0  0  0
   10.1634   -3.2618   24.7895 C   0  0  0  0  0  0  0  0  0  0  0  0
    9.9409   -6.6709   18.8113 C   0  0  0  0  0  0  0  0  0  0  0  0
    3.2287  -11.0852   18.7622 C   0  0  0  0  0  0  0  0  0  0  0  0
    9.4861   -3.6575   16.0803 C   0  0  0  0  0  0  0  0  0  0  0  0
    8.3725   -8.4605   14.8223 C   0  0  0  0  0  0  0  0  0  0  0  0
    3.0084  -11.8394   19.8770 C   0  0  0  0  0  0  0  0  0  0  0  0
    6.9647   -8.2400   16.0953 C   0  0  0  0  0  0  0  0  0  0  0  0
   10.4310   -4.1453   20.0268 C   0  0  0  0  0  0  0  0  0  0  0  0
    4.8470  -10.0562   17.8568 C   0  0  0  0  0  0  0  0  0  0  0  0
    9.0532   -4.8018   16.4022 C   0  0  0  0  0  0  0  0  0  0  0  0
    7.9543   -7.1946   15.9746 C   0  0  0  0  0  0  0  0  0  0  0  0
    8.0857   -5.5092   15.6811 O   0  0  0  0  0  0  0  0  0  0  0  0
   10.3546   -4.0495   18.5256 C   0  0  0  0  0  0  0  0  0  0  0  0
    5.8308   -7.3022   18.2714 O   0  0  0  0  0  0  0  0  0  0  0  0
    4.6106  -10.7373   18.7272 O   0  0  0  0  0  0  0  0  0  0  0  0
    2.2583   -9.8082   16.8560 C   0  0  0  0  0  0  0  0  0  0  0  0
   10.3644   -2.9405   26.2761 C   0  0  0  0  0  0  0  0  0  0  0  0
    8.4930   -8.7447   15.2969 C   0  0  0  0  0  0  0  0  0  0  0  0
   10.8628   -2.9636   17.9609 O   0  0  0  0  0  0  0  0  0  0  0  0
    5.5440   -8.3417   16.4479 C   0  0  0  0  0  0  0  0  0  0  0  0
    7.1492   -9.7135   15.3132 O   0  0  0  0  0  0  0  0  0  0  0  0
    9.5973   -4.8188   17.6343 N   0  0  0  0  0  0  0  0  0  0  0  0
    1.8530  -12.3995   20.1081 C   0  0  0  0  0  0  0  0  0  0  0  0
    9.9435   -1.1573   25.3016 C   0  0  0  0  0  0  0  0  0  0  0  0
    9.7269   -5.5696   18.9267 C   0  0  0  0  0  0  0  0  0  0  0  0
    1.0593  -11.5396   18.1233 C   0  0  0  0  0  0  0  0  0  0  0  0
    9.5181   -6.1687   18.0224 C   0  0  0  0  0  0  0  0  0  0  0  0
    4.4687   -9.2215   16.9455 C   0  0  0  0  0  0  0  0  0  0  0  0
    0.9331  -12.2977   19.2308 C   0  0  0  0  0  0  0  0  0  0  0  0
    3.2382   -9.0964   16.3900 C   0  0  0  0  0  0  0  0  0  0  0  0
    6.2080   -7.5532   17.1877 C   0  0  0  0  0  0  0  0  0  0  0  0
    2.2054  -10.7729   17.9397 C   0  0  0  0  0  0  0  0  0  0  0  0
    8.4732   -8.1214   16.9033 C   0  0  0  0  0  0  0  0  0  0  0  0
  1  2  1  0
  1 25  1  0
  2 18  1  0
  3 26  1  0
  3 28  1  0
  4  7  4  0
  4 16  4  0
  4 33  4  0
  5 11  2  0
  6 19  4  0
  7 24  4  0
  8 21  1  0
  9 14  2  0
 10 16  4  0
 10 29  4  0
 11 13  1  0
 11 23  1  0
 14 20  1  0
 14 23  1  0
 15 32  1  0
 17 31  4  0
 17 33  4  0
 18 25  1  0
 21 29  1  0
 21 32  1  0
 24 30  4  0
 27 30  4  0
 27 33  4  0
 29 31  4  0
M  END
$$$$

 Created by Python create_sdf_string function

 34 67  0  0  0  0  0  0  0  0999 V2000
    9.7698   -2.5524   24.7389 C   0  0  0  0  0  0  0  0  0  0  0  0
   10.4139   -6.9092   19.7818 C   0  0  0  0  0  0  0  0  0  0  0  0
    3.7137  -10.7556   18.9514 C   0  0  0  0  0  0  0  0  0  0  0  0
    8.9503   -3.6028   16.2512 O   0  0  0  0  0  0  0  0  0  0  0  0
    8.5839   -8.3443   15.2101 C   0  0  0  0  0  0  0  0  0  0  0  0
    3.1701  -11.8877   19.8928 C   0  0  0  0  0  0  0  0  0  0  0  0
    7.1257   -8.0009   14.6753 N   0  0  0  0  0  0  0  0  0  0  0  0
   10.7227   -4.3079   19.8375 C   0  0  0  0  0  0  0  0  0  0  0  0
    5.1382  -10.0738   17.8464 C   0  0  0  0  0  0  0  0  0  0  0  0
    8.6899   -4.8796   17.1456 C   0  0  0  0  0  0  0  0  0  0  0  0
    7.5130   -7.9885   16.5212 C   0  0  0  0  0  0  0  0  0  0  0  0
    7.6874   -5.9835   15.5729 O   0  0  0  0  0  0  0  0  0  0  0  0
   10.6606   -4.1707   18.0894 C   0  0  0  0  0  0  0  0  0  0  0  0
    6.1248   -7.9912   18.6396 O   0  0  0  0  0  0  0  0  0  0  0  0
    5.2250  -10.7999   19.0229 O   0  0  0  0  0  0  0  0  0  0  0  0
    2.0669  -10.0733   15.9625 F   0  0  0  0  0  0  0  0  0  0  0  0
    8.6102   -8.9154   15.5037 F   0  0  0  0  0  0  0  0  0  0  0  0
   11.1002   -2.5410   17.6503 O   0  0  0  0  0  0  0  0  0  0  0  0
    7.0970   -9.3723   15.0735 F   0  0  0  0  0  0  0  0  0  0  0  0
    1.8648  -12.7499   20.2045 C   0  0  0  0  0  0  0  0  0  0  0  0
   10.1100   -0.9469   24.9629 C   0  0  0  0  0  0  0  0  0  0  0  0
    9.3246   -6.4352   18.2519 F   0  0  0  0  0  0  0  0  0  0  0  0
    5.9151   -7.6310   16.7009 C   0  0  0  0  0  0  0  0  0  0  0  0
    2.2827  -10.5372   18.4043 C   0  0  0  0  0  0  0  0  0  0  0  0
    8.4228   -8.0155   16.5574 N   0  0  0  0  0  0  0  0  0  0  0  0
   10.4344   -3.5157   24.5731 He  0  0  0  0  0  0  0  0  0  0  0  0
   10.0731   -3.1651   26.0703 He  0  0  0  0  0  0  0  0  0  0  0  0
    5.6311   -8.3419   16.4065 He  0  0  0  0  0  0  0  0  0  0  0  0
   11.0185   -4.9391   16.0318 He  0  0  0  0  0  0  0  0  0  0  0  0
   10.5477   -5.3634   18.4630 He  0  0  0  0  0  0  0  0  0  0  0  0
    1.1594  -11.6979   18.0041 He  0  0  0  0  0  0  0  0  0  0  0  0
    4.6991   -9.6249   16.9982 He  0  0  0  0  0  0  0  0  0  0  0  0
    0.8671  -11.9318   18.6676 He  0  0  0  0  0  0  0  0  0  0  0  0
    3.3909   -8.3837   16.0951 He  0  0  0  0  0  0  0  0  0  0  0  0
  1 13  1  0
  1 21  1  0
  2  9  3  0
  2 25  3  0
  3  5  3  0
  3  6  4  0
  3 10  2  0
  3 11  3  0
  3 15  2  0
  3 16  1  0
  3 17  2  0
  3 22  1  0
  3 24  4  0
  3 25  4  0
  4  7  4  0
  4 10  2  0
  4 13  1  0
  4 14  4  0
  4 21  2  0
  4 25  2  0
  5  7  3  0
  5 17  4  0
  5 25  2  0
  6 11  1  0
  6 12  4  0
  6 18  4  0
  6 19  3  0
  6 20  4  0
  6 22  2  0
  7  8  3  0
  7  9  4  0
  7 13  1  0
  7 18  4  0
  7 22  4  0
  7 25  1  0
  8 10  1  0
  8 13  2  0
  8 25  4  0
  9 14  4  0
  9 17  3  0
  9 20  4  0
  9 25  3  0
 10 25  1  0
 11 12  1  0
 11 13  2  0
 11 21  2  0
 11 23  3  0
 11 24  4  0
 12 16  1  0
 12 19  1  0
 13 16  2  0
 13 18  1  0
 13 23  2  0
 13 24  2  0
 13 25  1  0
 14 19  1  0
 14 23  1  0
 15 16  3  0
 15 21  4  0
 16 22  3  0
 17 25  2  0
 18 19  2  0
 18 20  1  0
 18 22  2  0
 19 25  2  0
 22 23  4  0
 24 25  3  0
M  END
$$$$

 Created by Python create_sdf_string function

 34 31  0  0  0  0  0  0  0  0999 V2000
    9.7802   -2.1768   24.2354 C   0  0  0  0  0  0  0  0  0  0  0  0
   10.4329   -3.4501   24.6311 C   0  0  0  0  0  0  0  0  0  0  0  0
   10.2195   -6.5077   19.2134 C   0  0  0  0  0  0  0  0  0  0  0  0
    3.3692  -10.9573   18.6145 C   0  0  0  0  0  0  0  0  0  0  0  0
    9.1504   -3.8150   16.0637 O   0  0  0  0  0  0  0  0  0  0  0  0
    8.6795   -8.3162   15.0672 C   0  0  0  0  0  0  0  0  0  0  0  0
    3.0289  -11.8719   19.6862 C   0  0  0  0  0  0  0  0  0  0  0  0
    7.3225   -8.0269   15.5291 C   0  0  0  0  0  0  0  0  0  0  0  0
   10.7948   -4.2318   19.7472 C   0  0  0  0  0  0  0  0  0  0  0  0
    4.7932   -9.8294   17.9123 C   0  0  0  0  0  0  0  0  0  0  0  0
    9.2306   -4.8826   16.6611 C   0  0  0  0  0  0  0  0  0  0  0  0
    7.7922   -7.1906   16.5243 C   0  0  0  0  0  0  0  0  0  0  0  0
    7.6076   -5.7426   15.8739 O   0  0  0  0  0  0  0  0  0  0  0  0
   10.6819   -3.9059   18.2211 C   0  0  0  0  0  0  0  0  0  0  0  0
    6.2108   -7.7950   18.4981 O   0  0  0  0  0  0  0  0  0  0  0  0
    4.8305  -10.5280   18.7699 O   0  0  0  0  0  0  0  0  0  0  0  0
    2.2759   -9.6586   16.6695 C   0  0  0  0  0  0  0  0  0  0  0  0
   10.2337   -3.0947   26.3097 C   0  0  0  0  0  0  0  0  0  0  0  0
    8.9412   -8.7011   15.3884 C   0  0  0  0  0  0  0  0  0  0  0  0
   11.0933   -2.8519   17.7726 O   0  0  0  0  0  0  0  0  0  0  0  0
    5.5199   -8.4190   16.4598 C   0  0  0  0  0  0  0  0  0  0  0  0
    7.2167   -9.1842   15.1813 F   0  0  0  0  0  0  0  0  0  0  0  0
    9.8488   -4.8197   17.2456 C   0  0  0  0  0  0  0  0  0  0  0  0
    1.8011  -12.4131   19.8732 C   0  0  0  0  0  0  0  0  0  0  0  0
    9.9675   -1.0824   25.1409 C   0  0  0  0  0  0  0  0  0  0  0  0
   10.4152   -5.3128   18.9527 C   0  0  0  0  0  0  0  0  0  0  0  0
    1.1003  -11.1980   17.9791 C   0  0  0  0  0  0  0  0  0  0  0  0
    9.4189   -6.7116   18.1971 C   0  0  0  0  0  0  0  0  0  0  0  0
    4.4514   -9.2066   16.9654 C   0  0  0  0  0  0  0  0  0  0  0  0
    0.8497  -12.0660   19.0286 C   0  0  0  0  0  0  0  0  0  0  0  0
    3.2638   -9.0644   16.1716 C   0  0  0  0  0  0  0  0  0  0  0  0
    6.1833   -7.6682   17.0890 C   0  0  0  0  0  0  0  0  0  0  0  0
    2.2832  -10.6016   17.8054 C   0  0  0  0  0  0  0  0  0  0  0  0
    8.5204   -7.5400   16.6907 C   0  0  0  0  0  0  0  0  0  0  0  0
  1  2  1  0
  1 25  1  0
  2 18  1  0
  3 26  4  0
  3 28  1  0
  4  7  4  0
  4 16  4  0
  4 33  4  0
  5 11  2  0
  6 19  4  0
  7 24  4  0
  9 14  2  0
  9 26  1  0
 10 16  4  0
 10 29  4  0
 11 23  1  0
 12 13  1  0
 12 32  1  0
 12 34  4  0
 14 20  1  0
 14 23  1  0
 15 32  1  0
 17 31  4  0
 17 33  4  0
 18 25  1  0
 21 29  1  0
 21 32  1  0
 24 30  4  0
 27 30  4  0
 27 33  4  0
 29 31  4  0
M  END
$$$$

 Created by Python create_sdf_string function

 34 63  0  0  0  0  0  0  0  0999 V2000
    9.9123   -2.1413   23.8988 C   0  0  0  0  0  0  0  0  0  0  0  0
   10.8720   -3.0546   24.4155 C   0  0  0  0  0  0  0  0  0  0  0  0
    3.6360  -11.0422   19.0079 C   0  0  0  0  0  0  0  0  0  0  0  0
    9.7669   -3.4159   16.1688 O   0  0  0  0  0  0  0  0  0  0  0  0
    8.4829   -8.8132   14.7823 C   0  0  0  0  0  0  0  0  0  0  0  0
    2.8659  -11.2557   19.0402 C   0  0  0  0  0  0  0  0  0  0  0  0
    4.5675   -9.9532   17.4894 C   0  0  0  0  0  0  0  0  0  0  0  0
    9.0091   -5.4170   16.8169 N   0  0  0  0  0  0  0  0  0  0  0  0
    8.6888   -6.9911   16.2927 C   0  0  0  0  0  0  0  0  0  0  0  0
    7.6820   -5.4177   16.1175 O   0  0  0  0  0  0  0  0  0  0  0  0
   10.3069   -3.8847   18.4232 C   0  0  0  0  0  0  0  0  0  0  0  0
    6.0527   -7.0334   18.6546 O   0  0  0  0  0  0  0  0  0  0  0  0
   10.1945   -2.2537   26.3481 C   0  0  0  0  0  0  0  0  0  0  0  0
    8.7595   -8.2756   15.4622 C   0  0  0  0  0  0  0  0  0  0  0  0
   11.2434   -3.1346   18.3575 P   0  0  0  0  0  0  0  0  0  0  0  0
    5.3658   -8.3122   16.3751 C   0  0  0  0  0  0  0  0  0  0  0  0
    5.8594   -9.2339   15.6658 N   0  0  0  0  0  0  0  0  0  0  0  0
    8.3041   -3.4367   16.5767 O   0  0  0  0  0  0  0  0  0  0  0  0
    1.6882  -12.6663   20.3796 C   0  0  0  0  0  0  0  0  0  0  0  0
   10.0240   -0.5773   24.8592 C   0  0  0  0  0  0  0  0  0  0  0  0
    9.4814   -6.9119   17.9816 C   0  0  0  0  0  0  0  0  0  0  0  0
    4.1626   -9.1253   17.3524 C   0  0  0  0  0  0  0  0  0  0  0  0
    0.6348  -11.4503   18.9146 C   0  0  0  0  0  0  0  0  0  0  0  0
    2.9598   -8.5739   16.3967 C   0  0  0  0  0  0  0  0  0  0  0  0
    6.0242   -7.8205   17.2607 C   0  0  0  0  0  0  0  0  0  0  0  0
    9.6907   -6.3148   19.4463 He  0  0  0  0  0  0  0  0  0  0  0  0
    6.5482   -8.6416   16.4651 He  0  0  0  0  0  0  0  0  0  0  0  0
   10.2839   -3.9775   19.6106 He  0  0  0  0  0  0  0  0  0  0  0  0
    5.4014  -10.3254   18.8152 He  0  0  0  0  0  0  0  0  0  0  0  0
    2.5364   -9.2032   16.5674 He  0  0  0  0  0  0  0  0  0  0  0  0
    9.8571   -6.1843   19.2253 He  0  0  0  0  0  0  0  0  0  0  0  0
    1.0756  -11.3331   18.1207 He  0  0  0  0  0  0  0  0  0  0  0  0
    2.9482  -10.6601   17.5834 He  0  0  0  0  0  0  0  0  0  0  0  0
    8.4239   -8.6324   15.9590 He  0  0  0  0  0  0  0  0  0  0  0  0
  1  2  1  0
  1 20  1  0
  2  3  4  0
  2 13  4  0
  2 17  2  0
  2 18  2  0
  2 22  2  0
  2 23  2  0
  3  6  4  0
  3 12  1  0
  3 23  4  0
  4  7  1  0
  4  9  3  0
  5  8  1  0
  5  9  2  0
  5 14  4  0
  5 16  2  0
  5 21  4  0
  6 13  2  0
  6 17  4  0
  7 11  3  0
  7 16  2  0
  7 18  2  0
  7 19  1  0
  7 20  2  0
  7 22  4  0
  7 23  2  0
  7 25  4  0
  9 11  1  0
  9 12  2  0
  9 14  2  0
  9 15  2  0
  9 17  3  0
  9 21  2  0
  9 22  3  0
  9 24  1  0
 10 12  3  0
 10 17  1  0
 11 12  1  0
 11 15  1  0
 11 17  3  0
 11 19  3  0
 12 13  4  0
 12 14  3  0
 12 19  2  0
 12 20  3  0
 12 25  1  0
 13 18  2  0
 13 20  1  0
 13 23  1  0
 14 17  2  0
 14 19  3  0
 14 22  3  0
 15 23  4  0
 16 18  3  0
 16 19  2  0
 16 25  1  0
 17 22  3  0
 18 20  3  0
 18 23  1  0
 18 24  4  0
 21 24  1  0
 22 24  4  0
M  END
$$$$

 Created by Python create_sdf_string function

 34 32  0  0  0  0  0  0  0  0999 V2000
   10.0060   -2.0207   23.7889 C   0  0  0  0  0  0  0  0  0  0  0  0
   10.6840   -3.1370   24.4833 C   0  0  0  0  0  0  0  0  0  0  0  0
    9.9739   -6.4200   19.1455 C   0  0  0  0  0  0  0  0  0  0  0  0
    3.3592  -10.9983   18.7034 C   0  0  0  0  0  0  0  0  0  0  0  0
    9.7059   -3.5386   16.1054 O   0  0  0  0  0  0  0  0  0  0  0  0
    8.1593   -8.7427   14.8859 C   0  0  0  0  0  0  0  0  0  0  0  0
    2.9908  -11.8820   19.6791 C   0  0  0  0  0  0  0  0  0  0  0  0
    6.6447   -8.4645   16.1041 C   0  0  0  0  0  0  0  0  0  0  0  0
   10.4278   -4.0482   19.8684 N   0  0  0  0  0  0  0  0  0  0  0  0
    4.6793   -9.8201   17.8359 C   0  0  0  0  0  0  0  0  0  0  0  0
    9.2564   -5.1160   17.1504 N   0  0  0  0  0  0  0  0  0  0  0  0
    8.5327   -7.2012   16.6695 C   0  0  0  0  0  0  0  0  0  0  0  0
    7.7439   -5.1411   15.7891 O   0  0  0  0  0  0  0  0  0  0  0  0
   10.5566   -3.8475   18.5886 C   0  0  0  0  0  0  0  0  0  0  0  0
    6.2508   -7.0120   18.4894 O   0  0  0  0  0  0  0  0  0  0  0  0
    4.6260  -10.6433   18.6797 O   0  0  0  0  0  0  0  0  0  0  0  0
    2.3317   -9.4714   16.8148 N   0  0  0  0  0  0  0  0  0  0  0  0
   10.2108   -2.0648   26.1574 C   0  0  0  0  0  0  0  0  0  0  0  0
    8.7850   -8.2399   15.2365 C   0  0  0  0  0  0  0  0  0  0  0  0
   11.0278   -2.9769   18.1301 O   0  0  0  0  0  0  0  0  0  0  0  0
    5.3519   -8.0221   16.5430 C   0  0  0  0  0  0  0  0  0  0  0  0
    6.5564   -9.2325   15.3335 C   0  0  0  0  0  0  0  0  0  0  0  0
    9.1389   -4.5515   16.4844 C   0  0  0  0  0  0  0  0  0  0  0  0
    1.7294  -12.2356   19.8844 C   0  0  0  0  0  0  0  0  0  0  0  0
    9.9088   -0.9098   24.9470 C   0  0  0  0  0  0  0  0  0  0  0  0
    9.8733   -5.5029   18.7456 C   0  0  0  0  0  0  0  0  0  0  0  0
    1.1377  -10.9291   18.0482 C   0  0  0  0  0  0  0  0  0  0  0  0
    9.4475   -6.9964   18.1553 C   0  0  0  0  0  0  0  0  0  0  0  0
    4.1704   -9.0231   16.9503 C   0  0  0  0  0  0  0  0  0  0  0  0
    0.8259  -11.8270   19.0555 C   0  0  0  0  0  0  0  0  0  0  0  0
    3.0667   -8.7833   16.3352 C   0  0  0  0  0  0  0  0  0  0  0  0
    6.1663   -7.4738   17.4584 C   0  0  0  0  0  0  0  0  0  0  0  0
    2.3929  -10.4574   17.8831 C   0  0  0  0  0  0  0  0  0  0  0  0
    7.7420   -7.8960   16.5862 C   0  0  0  0  0  0  0  0  0  0  0  0
  1  2  1  0
  1 25  1  0
  2 18  1  0
  3 26  1  0
  3 28  1  0
  4  7  4  0
  4 16  4  0
  4 33  4  0
  5 23  1  0
  6 19  4  0
  6 22  4  0
  7 24  4  0
  8 21  1  0
  8 22  4  0
  9 14  1  0
 10 16  4  0
 10 29  4  0
 11 23  1  0
 12 28  1  0
 12 34  4  0
 13 23  2  0
 14 20  1  0
 15 32  1  0
 17 31  4  0
 17 33  4  0
 18 25  1  0
 21 29  1  0
 21 32  1  0
 24 30  4  0
 27 30  4  0
 27 33  4  0
 29 31  4  0
M  END
$$$$

 Created by Python create_sdf_string function

 34 82  0  0  0  0  0  0  0  0999 V2000
   10.8067   -3.0958   24.3640 C   0  0  0  0  0  0  0  0  0  0  0  0
    3.0040  -11.6067   18.6495 S   0  0  0  0  0  0  0  0  0  0  0  0
    9.5640   -3.6280   16.3366 Se  0  0  0  0  0  0  0  0  0  0  0  0
    7.7624   -8.7241   15.3935 C   0  0  0  0  0  0  0  0  0  0  0  0
    3.0473  -11.6319   18.5038 O   0  0  0  0  0  0  0  0  0  0  0  0
    6.5740   -6.7966   15.6359 P   0  0  0  0  0  0  0  0  0  0  0  0
    9.8434   -3.6662   19.5654 F   0  0  0  0  0  0  0  0  0  0  0  0
    4.8308   -9.4357   18.1084 C   0  0  0  0  0  0  0  0  0  0  0  0
    8.5324   -7.0748   16.6911 F   0  0  0  0  0  0  0  0  0  0  0  0
    8.1862   -5.5806   15.6492 O   0  0  0  0  0  0  0  0  0  0  0  0
   11.3193   -3.6119   19.1444 C   0  0  0  0  0  0  0  0  0  0  0  0
    5.6516   -7.0252   19.0668 O   0  0  0  0  0  0  0  0  0  0  0  0
    2.0440   -9.5706   17.1447 N   0  0  0  0  0  0  0  0  0  0  0  0
    8.4267   -8.6023   14.9604 C   0  0  0  0  0  0  0  0  0  0  0  0
   11.0360   -3.1159   18.5184 O   0  0  0  0  0  0  0  0  0  0  0  0
    5.3530   -7.9880   16.3625 C   0  0  0  0  0  0  0  0  0  0  0  0
    6.1822  -10.3254   14.3543 C   0  0  0  0  0  0  0  0  0  0  0  0
   10.7751   -4.2211   15.7432 F   0  0  0  0  0  0  0  0  0  0  0  0
    1.7879  -12.2851   20.2332 Cl  0  0  0  0  0  0  0  0  0  0  0  0
    9.8911   -0.7824   25.8855 C   0  0  0  0  0  0  0  0  0  0  0  0
    1.1727  -10.9269   17.9422 C   0  0  0  0  0  0  0  0  0  0  0  0
    0.6431  -11.4542   19.0515 C   0  0  0  0  0  0  0  0  0  0  0  0
    3.2823   -8.9195   16.2500 C   0  0  0  0  0  0  0  0  0  0  0  0
    6.9049   -7.3694   17.7892 F   0  0  0  0  0  0  0  0  0  0  0  0
    2.7978   -9.9754   18.3983 O   0  0  0  0  0  0  0  0  0  0  0  0
    6.8271   -8.1082   16.9159 N   0  0  0  0  0  0  0  0  0  0  0  0
    9.8578   -1.3209   23.2404 He  0  0  0  0  0  0  0  0  0  0  0  0
   10.0178   -5.8267   19.0356 He  0  0  0  0  0  0  0  0  0  0  0  0
    9.3754   -5.4807   17.2987 He  0  0  0  0  0  0  0  0  0  0  0  0
    4.7990  -10.4364   18.5006 He  0  0  0  0  0  0  0  0  0  0  0  0
    9.9006   -2.1792   26.2848 He  0  0  0  0  0  0  0  0  0  0  0  0
   11.1981   -6.2073   17.3505 He  0  0  0  0  0  0  0  0  0  0  0  0
    9.0724   -6.8826   18.5899 He  0  0  0  0  0  0  0  0  0  0  0  0
    4.1900   -8.4407   16.8639 He  0  0  0  0  0  0  0  0  0  0  0  0
  1 23  4  0
  2  4  2  0
  2  5  4  0
  2  6  1  0
  2  7  1  0
  2 13  2  0
  2 17  1  0
  2 18  3  0
  2 25  4  0
  3  6  1  0
  3  9  1  0
  3 15  3  0
  3 16  1  0
  3 26  1  0
  4 14  4  0
  4 15  4  0
  4 20  3  0
  4 21  4  0
  4 26  2  0
  5 18  1  0
  5 26  2  0
  6  7  2  0
  6  8  2  0
  6  9  2  0
  6 11  3  0
  6 16  2  0
  6 18  2  0
  6 19  3  0
  6 21  1  0
  7 10  1  0
  7 11  1  0
  7 15  3  0
  7 20  2  0
  8 10  4  0
  8 14  2  0
  8 17  2  0
  9 10  3  0
  9 13  3  0
  9 15  2  0
  9 17  2  0
  9 19  4  0
  9 20  4  0
  9 24  2  0
 10 12  2  0
 10 18  4  0
 10 19  2  0
 10 21  3  0
 11 15  2  0
 11 17  1  0
 11 26  3  0
 12 18  4  0
 12 24  1  0
 12 26  4  0
 13 17  1  0
 13 20  4  0
 13 23  4  0
 13 25  4  0
 14 17  1  0
 14 18  3  0
 15 17  4  0
 15 23  1  0
 15 24  2  0
 16 24  1  0
 17 21  1  0
 17 23  3  0
 17 24  3  0
 17 26  1  0
 18 20  1  0
 18 23  1  0
 18 25  3  0
 18 26  1  0
 19 22  4  0
 19 26  2  0
 20 23  4  0
 20 25  1  0
 20 26  4  0
 21 22  4  0
 21 25  4  0
 21 26  4  0
 22 23  4  0
 22 26  4  0
 23 25  4  0
M  END
$$$$

 Created by Python create_sdf_string function

 34 29  0  0  0  0  0  0  0  0999 V2000
   10.0112   -1.5855   23.7386 C   0  0  0  0  0  0  0  0  0  0  0  0
   10.4343   -2.8980   24.3208 C   0  0  0  0  0  0  0  0  0  0  0  0
    9.9649   -6.1153   18.8704 C   0  0  0  0  0  0  0  0  0  0  0  0
    3.2170  -10.9224   18.5812 C   0  0  0  0  0  0  0  0  0  0  0  0
    9.8448   -3.8572   16.3269 C   0  0  0  0  0  0  0  0  0  0  0  0
    7.8088   -8.5137   15.2746 C   0  0  0  0  0  0  0  0  0  0  0  0
    3.0003  -11.8876   19.4385 C   0  0  0  0  0  0  0  0  0  0  0  0
    6.6813   -6.8695   15.8901 C   0  0  0  0  0  0  0  0  0  0  0  0
   10.2346   -3.9995   19.8351 N   0  0  0  0  0  0  0  0  0  0  0  0
    4.8802   -9.6406   17.8964 C   0  0  0  0  0  0  0  0  0  0  0  0
    9.4799   -5.5586   17.1930 C   0  0  0  0  0  0  0  0  0  0  0  0
    8.4070   -6.6942   16.7505 C   0  0  0  0  0  0  0  0  0  0  0  0
    8.2374   -5.4635   15.8652 O   0  0  0  0  0  0  0  0  0  0  0  0
   10.7611   -3.7290   18.8085 C   0  0  0  0  0  0  0  0  0  0  0  0
    6.0570   -7.2451   18.7078 O   0  0  0  0  0  0  0  0  0  0  0  0
    4.6806  -10.5359   18.4085 O   0  0  0  0  0  0  0  0  0  0  0  0
    2.2790   -9.3232   16.8480 N   0  0  0  0  0  0  0  0  0  0  0  0
    9.9727   -2.2820   25.9083 C   0  0  0  0  0  0  0  0  0  0  0  0
    8.3249   -8.2460   15.1683 C   0  0  0  0  0  0  0  0  0  0  0  0
   11.1820   -2.7494   18.4320 O   0  0  0  0  0  0  0  0  0  0  0  0
    5.5924   -7.8994   16.5709 C   0  0  0  0  0  0  0  0  0  0  0  0
    6.4718   -9.7933   15.1710 O   0  0  0  0  0  0  0  0  0  0  0  0
   10.1672   -4.3179   16.3203 C   0  0  0  0  0  0  0  0  0  0  0  0
    1.7379  -12.2541   19.7456 C   0  0  0  0  0  0  0  0  0  0  0  0
    9.7090   -0.8873   25.3596 C   0  0  0  0  0  0  0  0  0  0  0  0
   10.3727   -5.0937   17.9530 C   0  0  0  0  0  0  0  0  0  0  0  0
    0.9679  -10.7246   18.1952 C   0  0  0  0  0  0  0  0  0  0  0  0
    9.1863   -6.8617   18.5408 C   0  0  0  0  0  0  0  0  0  0  0  0
    4.4404   -8.8083   17.0534 C   0  0  0  0  0  0  0  0  0  0  0  0
    0.7780  -11.6946   19.1232 C   0  0  0  0  0  0  0  0  0  0  0  0
    3.2414   -8.7252   16.4830 C   0  0  0  0  0  0  0  0  0  0  0  0
    6.6872   -7.4160   17.5917 C   0  0  0  0  0  0  0  0  0  0  0  0
    2.2447  -10.3313   17.8339 C   0  0  0  0  0  0  0  0  0  0  0  0
    6.7485   -8.2455   16.7023 C   0  0  0  0  0  0  0  0  0  0  0  0
  1  2  1  0
  1 25  1  0
  2 18  1  0
  3 26  1  0
  3 28  1  0
  4  7  4  0
  4 16  4  0
  4 33  4  0
  5 23  1  0
  6 19  1  0
  7 24  4  0
  9 14  1  0
 10 16  4  0
 10 29  4  0
 11 12  1  0
 11 26  1  0
 14 20  2  0
 14 26  1  0
 15 32  1  0
 17 31  4  0
 17 33  4  0
 18 25  1  0
 21 29  1  0
 21 32  1  0
 21 34  1  0
 24 30  4  0
 27 30  4  0
 27 33  4  0
 29 31  4  0
M  END
$$$$

 Created by Python create_sdf_string function

 34 81  0  0  0  0  0  0  0  0999 V2000
    9.8589   -1.7819   24.6699 C   0  0  0  0  0  0  0  0  0  0  0  0
   10.2329   -2.3230   24.5035 C   0  0  0  0  0  0  0  0  0  0  0  0
   10.4552   -5.7571   19.8037 C   0  0  0  0  0  0  0  0  0  0  0  0
    3.9848  -10.2087   18.5007 C   0  0  0  0  0  0  0  0  0  0  0  0
    7.7931   -8.0629   15.3373 N   0  0  0  0  0  0  0  0  0  0  0  0
    2.4656  -12.0777   19.5656 C   0  0  0  0  0  0  0  0  0  0  0  0
    7.7550   -6.4088   16.2995 F   0  0  0  0  0  0  0  0  0  0  0  0
    4.6653   -8.6162   18.4248 C   0  0  0  0  0  0  0  0  0  0  0  0
    9.1948   -5.5049   17.4075 F   0  0  0  0  0  0  0  0  0  0  0  0
    7.8541   -5.0057   15.8248 O   0  0  0  0  0  0  0  0  0  0  0  0
   10.5401   -3.3009   19.0020 O   0  0  0  0  0  0  0  0  0  0  0  0
    4.8021  -10.8676   19.1251 O   0  0  0  0  0  0  0  0  0  0  0  0
    2.6723   -9.5381   16.2594 S   0  0  0  0  0  0  0  0  0  0  0  0
    9.9066   -2.1144   26.6439 C   0  0  0  0  0  0  0  0  0  0  0  0
   11.1090   -2.7188   18.1001 O   0  0  0  0  0  0  0  0  0  0  0  0
    5.0961   -7.1778   16.2785 C   0  0  0  0  0  0  0  0  0  0  0  0
   10.8411   -4.3563   15.4245 F   0  0  0  0  0  0  0  0  0  0  0  0
    1.4244  -11.7991   20.1635 C   0  0  0  0  0  0  0  0  0  0  0  0
   10.0492   -0.7751   25.3767 C   0  0  0  0  0  0  0  0  0  0  0  0
    9.3528   -5.0136   19.0196 S   0  0  0  0  0  0  0  0  0  0  0  0
    1.1551  -10.1687   18.5195 C   0  0  0  0  0  0  0  0  0  0  0  0
    8.5654   -7.2066   18.5698 C   0  0  0  0  0  0  0  0  0  0  0  0
    4.6423   -8.8210   16.4401 C   0  0  0  0  0  0  0  0  0  0  0  0
    1.0112  -11.4621   19.2893 Cl  0  0  0  0  0  0  0  0  0  0  0  0
    2.6705   -8.7463   16.4024 C   0  0  0  0  0  0  0  0  0  0  0  0
    2.1513  -10.4188   17.7366 C   0  0  0  0  0  0  0  0  0  0  0  0
    9.3498   -4.3532   16.7866 He  0  0  0  0  0  0  0  0  0  0  0  0
    9.9355   -4.1646   19.3662 He  0  0  0  0  0  0  0  0  0  0  0  0
    7.6958   -7.7047   16.7986 He  0  0  0  0  0  0  0  0  0  0  0  0
    5.9367   -7.2540   18.9081 He  0  0  0  0  0  0  0  0  0  0  0  0
    8.4804   -8.0912   14.8030 He  0  0  0  0  0  0  0  0  0  0  0  0
    5.3946  -10.6852   14.7247 He  0  0  0  0  0  0  0  0  0  0  0  0
    7.0809   -7.7948   17.0926 He  0  0  0  0  0  0  0  0  0  0  0  0
    6.5027   -8.8854   18.3961 He  0  0  0  0  0  0  0  0  0  0  0  0
  1 10  2  0
  1 19  1  0
  1 20  3  0
  1 23  2  0
  2  4  4  0
  2  7  4  0
  2  8  3  0
  2 12  2  0
  2 21  1  0
  3  7  3  0
  3 11  4  0
  3 12  4  0
  3 14  3  0
  3 19  4  0
  4  6  4  0
  4 12  4  0
  4 24  1  0
  4 26  4  0
  5 13  1  0
  5 24  2  0
  6  7  3  0
  6 10  4  0
  6 18  4  0
  6 19  3  0
  6 21  4  0
  7  9  2  0
  7 11  3  0
  7 12  3  0
  7 13  3  0
  7 14  1  0
  7 15  2  0
  7 16  4  0
  7 19  3  0
  7 22  3  0
  7 24  4  0
  7 25  2  0
  8 12  4  0
  8 15  2  0
  8 16  2  0
  8 20  3  0
  9 13  4  0
  9 20  1  0
  9 21  2  0
  9 25  2  0
 10 11  2  0
 10 15  2  0
 10 17  4  0
 10 20  2  0
 11 12  4  0
 11 15  2  0
 11 17  1  0
 11 20  3  0
 11 22  2  0
 11 25  3  0
 12 16  1  0
 12 17  3  0
 12 19  1  0
 13 20  4  0
 13 22  4  0
 13 25  4  0
 13 26  4  0
 14 20  4  0
 15 17  4  0
 15 18  2  0
 15 19  2  0
 16 22  2  0
 16 23  1  0
 16 26  4  0
 17 19  4  0
 17 20  4  0
 17 22  2  0
 17 24  1  0
 17 26  3  0
 18 24  4  0
 19 21  2  0
 20 21  1  0
 20 22  1  0
 20 23  2  0
 20 25  4  0
 21 26  4  0
 25 26  2  0
M  END
$$$$

 Created by Python create_sdf_string function

 34 33  0  0  0  0  0  0  0  0999 V2000
    9.8326   -1.5500   24.3529 C   0  0  0  0  0  0  0  0  0  0  0  0
   10.2068   -2.6763   24.3802 C   0  0  0  0  0  0  0  0  0  0  0  0
   10.1915   -5.6245   19.6119 C   0  0  0  0  0  0  0  0  0  0  0  0
    3.1958  -10.7298   18.6716 C   0  0  0  0  0  0  0  0  0  0  0  0
    9.7247   -4.2169   16.6912 C   0  0  0  0  0  0  0  0  0  0  0  0
    7.7608   -8.2913   15.2607 C   0  0  0  0  0  0  0  0  0  0  0  0
    2.8073  -11.6832   19.7107 C   0  0  0  0  0  0  0  0  0  0  0  0
    8.2910   -6.0082   16.3722 C   0  0  0  0  0  0  0  0  0  0  0  0
   10.2645   -3.9613   19.2318 C   0  0  0  0  0  0  0  0  0  0  0  0
    4.8461   -9.4359   17.9536 C   0  0  0  0  0  0  0  0  0  0  0  0
    9.3009   -5.3610   17.3640 C   0  0  0  0  0  0  0  0  0  0  0  0
    7.8558   -7.2849   16.8365 C   0  0  0  0  0  0  0  0  0  0  0  0
    7.7798   -5.2421   15.5640 O   0  0  0  0  0  0  0  0  0  0  0  0
   10.6827   -3.4845   18.7123 C   0  0  0  0  0  0  0  0  0  0  0  0
    6.0354   -7.4794   18.8748 O   0  0  0  0  0  0  0  0  0  0  0  0
    4.5376  -10.1940   18.6808 O   0  0  0  0  0  0  0  0  0  0  0  0
    2.3671   -9.4538   16.7108 N   0  0  0  0  0  0  0  0  0  0  0  0
    9.9119   -2.1103   26.6250 C   0  0  0  0  0  0  0  0  0  0  0  0
    8.4662   -8.1657   14.8874 C   0  0  0  0  0  0  0  0  0  0  0  0
   11.1546   -2.6551   18.1715 O   0  0  0  0  0  0  0  0  0  0  0  0
    5.4487   -7.6672   16.1567 C   0  0  0  0  0  0  0  0  0  0  0  0
    5.8006   -9.2887   15.0151 O   0  0  0  0  0  0  0  0  0  0  0  0
   10.3183   -3.9920   16.4666 C   0  0  0  0  0  0  0  0  0  0  0  0
    1.6213  -11.9681   19.9201 C   0  0  0  0  0  0  0  0  0  0  0  0
    9.8743   -0.6957   25.4896 C   0  0  0  0  0  0  0  0  0  0  0  0
    9.6190   -5.6689   18.4817 C   0  0  0  0  0  0  0  0  0  0  0  0
    0.9126  -10.7083   18.0882 C   0  0  0  0  0  0  0  0  0  0  0  0
    8.7196   -7.1514   18.3427 C   0  0  0  0  0  0  0  0  0  0  0  0
    4.5656   -8.7935   16.8599 C   0  0  0  0  0  0  0  0  0  0  0  0
    0.6918  -11.4633   19.2253 C   0  0  0  0  0  0  0  0  0  0  0  0
    3.2642   -9.0634   16.2849 C   0  0  0  0  0  0  0  0  0  0  0  0
    6.8278   -7.8798   17.0734 C   0  0  0  0  0  0  0  0  0  0  0  0
    2.1828  -10.2838   17.8475 C   0  0  0  0  0  0  0  0  0  0  0  0
    6.3625   -8.3440   18.0295 C   0  0  0  0  0  0  0  0  0  0  0  0
  1  2  1  0
  1 25  1  0
  3 26  1  0
  4  7  4  0
  4 16  4  0
  4 33  4  0
  5 11  1  0
  5 23  1  0
  6 19  1  0
  7 24  4  0
  8 11  1  0
  8 12  1  0
  8 13  2  0
  9 14  1  0
 10 16  4  0
 10 29  4  0
 10 34  1  0
 11 26  1  0
 12 28  1  0
 12 32  1  0
 14 20  2  0
 15 34  1  0
 17 31  4  0
 17 33  4  0
 18 25  1  0
 21 29  1  0
 21 32  1  0
 24 30  4  0
 26 28  1  0
 27 30  4  0
 27 33  4  0
 29 31  4  0
 32 34  1  0
M  END
$$$$

 Created by Python create_sdf_string function

 34 48  0  0  0  0  0  0  0  0999 V2000
   10.1994   -1.5721   24.7786 C   0  0  0  0  0  0  0  0  0  0  0  0
   10.4150   -3.4189   24.2219 O   0  0  0  0  0  0  0  0  0  0  0  0
    3.1430  -10.0090   18.3377 C   0  0  0  0  0  0  0  0  0  0  0  0
    7.7162   -7.8880   15.1723 C   0  0  0  0  0  0  0  0  0  0  0  0
   10.4372   -3.6674   18.9143 C   0  0  0  0  0  0  0  0  0  0  0  0
    4.7270   -8.7867   17.7382 C   0  0  0  0  0  0  0  0  0  0  0  0
    8.1770   -8.0992   16.0612 F   0  0  0  0  0  0  0  0  0  0  0  0
    7.9777   -5.5761   15.9709 O   0  0  0  0  0  0  0  0  0  0  0  0
   10.2836   -3.5896   18.0973 P   0  0  0  0  0  0  0  0  0  0  0  0
    6.0324   -6.7934   18.3249 O   0  0  0  0  0  0  0  0  0  0  0  0
    4.6455  -10.1296   18.6086 O   0  0  0  0  0  0  0  0  0  0  0  0
    2.3910   -9.1761   16.7843 N   0  0  0  0  0  0  0  0  0  0  0  0
    9.4240   -2.4757   26.6980 C   0  0  0  0  0  0  0  0  0  0  0  0
    8.8189   -8.2045   15.2926 C   0  0  0  0  0  0  0  0  0  0  0  0
   10.4830   -2.5138   17.8787 O   0  0  0  0  0  0  0  0  0  0  0  0
   11.6076   -4.1930   14.3494 S   0  0  0  0  0  0  0  0  0  0  0  0
    2.1406  -12.4754   20.0453 C   0  0  0  0  0  0  0  0  0  0  0  0
    9.0872   -0.8557   25.9897 C   0  0  0  0  0  0  0  0  0  0  0  0
    9.6728   -5.3550   17.3611 N   0  0  0  0  0  0  0  0  0  0  0  0
    1.1653  -11.0847   18.0678 C   0  0  0  0  0  0  0  0  0  0  0  0
    8.8651   -7.1374   18.5240 C   0  0  0  0  0  0  0  0  0  0  0  0
    3.0942   -8.7993   16.4764 C   0  0  0  0  0  0  0  0  0  0  0  0
    6.4163   -7.7315   17.2000 C   0  0  0  0  0  0  0  0  0  0  0  0
   10.0095   -5.5663   20.1919 He  0  0  0  0  0  0  0  0  0  0  0  0
    9.9059   -4.3165   17.0162 He  0  0  0  0  0  0  0  0  0  0  0  0
    3.0754  -11.9433   19.3794 He  0  0  0  0  0  0  0  0  0  0  0  0
    8.7408   -7.7731   15.9976 He  0  0  0  0  0  0  0  0  0  0  0  0
    9.5625   -5.2182   17.6126 He  0  0  0  0  0  0  0  0  0  0  0  0
    5.8411   -7.7471   15.7168 He  0  0  0  0  0  0  0  0  0  0  0  0
    5.3835   -8.7133   16.3441 He  0  0  0  0  0  0  0  0  0  0  0  0
    4.4041   -9.1950   16.8179 He  0  0  0  0  0  0  0  0  0  0  0  0
    0.2835  -11.9460   19.6508 He  0  0  0  0  0  0  0  0  0  0  0  0
    1.7171  -10.3367   17.5196 He  0  0  0  0  0  0  0  0  0  0  0  0
    7.2952   -9.8603   17.2498 He  0  0  0  0  0  0  0  0  0  0  0  0
  1  3  2  0
  1  5  4  0
  1  8  3  0
  1  9  3  0
  1 16  1  0
  1 18  1  0
  2  7  4  0
  2 14  3  0
  3 14  3  0
  3 16  4  0
  3 19  1  0
  4  5  4  0
  4 13  2  0
  4 14  1  0
  4 20  2  0
  4 22  1  0
  6 16  2  0
  6 22  1  0
  7  9  4  0
  7 10  4  0
  7 11  1  0
  7 16  1  0
  7 18  2  0
  7 22  1  0
  9 14  2  0
  9 15  2  0
  9 19  4  0
  9 20  3  0
 11 21  3  0
 12 20  1  0
 12 22  4  0
 12 23  4  0
 13 15  3  0
 13 16  3  0
 13 17  3  0
 13 18  4  0
 14 19  2  0
 14 20  4  0
 14 21  1  0
 15 19  3  0
 16 17  1  0
 16 18  4  0
 16 20  2  0
 17 19  2  0
 17 21  3  0
 18 23  4  0
 19 20  4  0
 19 22  3  0
M  END
$$$$

 Created by Python create_sdf_string function

 34 27  0  0  0  0  0  0  0  0999 V2000
   10.0021   -1.7045   24.6500 C   0  0  0  0  0  0  0  0  0  0  0  0
   10.2188   -2.9190   24.2034 O   0  0  0  0  0  0  0  0  0  0  0  0
   10.1316   -5.3291   19.6813 C   0  0  0  0  0  0  0  0  0  0  0  0
    3.1148  -10.7140   18.5328 C   0  0  0  0  0  0  0  0  0  0  0  0
   10.0750   -4.3662   16.9068 C   0  0  0  0  0  0  0  0  0  0  0  0
    7.6070   -7.9584   15.1261 C   0  0  0  0  0  0  0  0  0  0  0  0
    3.0653  -11.6266   19.5316 C   0  0  0  0  0  0  0  0  0  0  0  0
    8.7594   -7.4565   16.3742 C   0  0  0  0  0  0  0  0  0  0  0  0
   10.4338   -3.9326   19.2346 C   0  0  0  0  0  0  0  0  0  0  0  0
    4.5529   -9.3764   17.5573 C   0  0  0  0  0  0  0  0  0  0  0  0
    9.4449   -5.4626   17.4454 C   0  0  0  0  0  0  0  0  0  0  0  0
    8.0844   -7.6967   16.8593 C   0  0  0  0  0  0  0  0  0  0  0  0
    8.0372   -5.4504   15.8160 O   0  0  0  0  0  0  0  0  0  0  0  0
   10.6774   -3.4740   18.1000 C   0  0  0  0  0  0  0  0  0  0  0  0
    6.1846   -6.9457   18.4056 O   0  0  0  0  0  0  0  0  0  0  0  0
    4.5049  -10.1987   18.4932 O   0  0  0  0  0  0  0  0  0  0  0  0
    2.1244   -9.4428   16.7635 N   0  0  0  0  0  0  0  0  0  0  0  0
    9.2794   -2.5715   26.7325 C   0  0  0  0  0  0  0  0  0  0  0  0
    8.7081   -8.1727   15.1592 C   0  0  0  0  0  0  0  0  0  0  0  0
   11.2006   -2.4119   17.8915 O   0  0  0  0  0  0  0  0  0  0  0  0
    5.9244   -7.7818   15.4029 C   0  0  0  0  0  0  0  0  0  0  0  0
    5.4707   -8.6198   16.6430 C   0  0  0  0  0  0  0  0  0  0  0  0
   10.6767   -3.9281   15.7474 C   0  0  0  0  0  0  0  0  0  0  0  0
    1.8228  -12.2246   19.8234 C   0  0  0  0  0  0  0  0  0  0  0  0
    9.2404   -1.2884   25.7794 C   0  0  0  0  0  0  0  0  0  0  0  0
    9.4475   -5.6518   17.6349 C   0  0  0  0  0  0  0  0  0  0  0  0
    0.7710  -11.0017   18.2093 C   0  0  0  0  0  0  0  0  0  0  0  0
    9.0800   -7.1255   18.2804 C   0  0  0  0  0  0  0  0  0  0  0  0
    4.6115   -8.8476   16.6382 C   0  0  0  0  0  0  0  0  0  0  0  0
    0.7446  -11.8872   19.1884 C   0  0  0  0  0  0  0  0  0  0  0  0
    3.1427   -8.9464   16.3901 C   0  0  0  0  0  0  0  0  0  0  0  0
    6.4937   -7.6487   17.5565 C   0  0  0  0  0  0  0  0  0  0  0  0
    1.9800  -10.3798   17.8519 C   0  0  0  0  0  0  0  0  0  0  0  0
    7.2454   -9.0343   17.1965 C   0  0  0  0  0  0  0  0  0  0  0  0
  1  2  1  0
  1 25  1  0
  3  9  1  0
  4  7  4  0
  4 16  4  0
  4 33  4  0
  5 11  1  0
  5 14  1  0
  5 23  1  0
  6 19  1  0
  6 21  1  0
  7 24  4  0
  9 14  1  0
 10 16  4  0
 10 29  4  0
 11 26  1  0
 14 20  2  0
 15 32  1  0
 17 31  4  0
 17 33  4  0
 18 25  1  0
 22 29  1  0
 24 30  4  0
 26 28  1  0
 27 30  4  0
 27 33  4  0
 29 31  4  0
M  END
$$$$

 Created by Python create_sdf_string function

 34 81  0  0  0  0  0  0  0  0999 V2000
    9.8499   -2.3993   23.9260 O   0  0  0  0  0  0  0  0  0  0  0  0
   10.3880   -5.6683   19.5509 C   0  0  0  0  0  0  0  0  0  0  0  0
    3.0954  -10.8370   18.3585 C   0  0  0  0  0  0  0  0  0  0  0  0
    7.6550   -7.8640   15.2601 C   0  0  0  0  0  0  0  0  0  0  0  0
    3.0797  -11.7775   19.2403 N   0  0  0  0  0  0  0  0  0  0  0  0
   10.4457   -3.9995   19.4261 O   0  0  0  0  0  0  0  0  0  0  0  0
    3.9896   -9.9377   17.5046 C   0  0  0  0  0  0  0  0  0  0  0  0
    9.6087   -5.4391   16.8895 C   0  0  0  0  0  0  0  0  0  0  0  0
    7.5468   -5.5302   15.9232 F   0  0  0  0  0  0  0  0  0  0  0  0
   10.8514   -3.5609   17.4728 C   0  0  0  0  0  0  0  0  0  0  0  0
    6.2651   -6.7766   18.3491 P   0  0  0  0  0  0  0  0  0  0  0  0
    4.6866  -10.1711   17.6503 O   0  0  0  0  0  0  0  0  0  0  0  0
    9.4282   -2.3538   26.4434 C   0  0  0  0  0  0  0  0  0  0  0  0
    8.4300   -8.0200   14.8447 C   0  0  0  0  0  0  0  0  0  0  0  0
   11.3028   -2.1353   17.6579 O   0  0  0  0  0  0  0  0  0  0  0  0
    5.6432   -7.7548   14.8226 C   0  0  0  0  0  0  0  0  0  0  0  0
    4.4873   -6.9949   16.3673 C   0  0  0  0  0  0  0  0  0  0  0  0
    8.7440   -4.7230   15.5767 S   0  0  0  0  0  0  0  0  0  0  0  0
    1.8434  -12.0551   19.8593 C   0  0  0  0  0  0  0  0  0  0  0  0
    8.9088   -0.4827   25.7536 C   0  0  0  0  0  0  0  0  0  0  0  0
   10.0125   -6.2500   16.9217 N   0  0  0  0  0  0  0  0  0  0  0  0
    0.9311  -11.0586   18.8376 O   0  0  0  0  0  0  0  0  0  0  0  0
    4.9211   -8.1457   16.9826 C   0  0  0  0  0  0  0  0  0  0  0  0
    1.0947  -11.9056   18.9842 C   0  0  0  0  0  0  0  0  0  0  0  0
    2.5048   -9.0077   15.9479 C   0  0  0  0  0  0  0  0  0  0  0  0
    7.0017   -7.9022   17.9443 C   0  0  0  0  0  0  0  0  0  0  0  0
    1.6866  -10.2572   17.8713 C   0  0  0  0  0  0  0  0  0  0  0  0
    6.5250   -8.3112   18.6061 C   0  0  0  0  0  0  0  0  0  0  0  0
   10.2098   -1.2673   23.6996 He  0  0  0  0  0  0  0  0  0  0  0  0
    9.6679   -4.4466   16.7352 He  0  0  0  0  0  0  0  0  0  0  0  0
    8.1410   -7.9507   17.7783 He  0  0  0  0  0  0  0  0  0  0  0  0
    7.2496   -8.8633   17.4817 He  0  0  0  0  0  0  0  0  0  0  0  0
    1.6329   -9.5418   16.8040 He  0  0  0  0  0  0  0  0  0  0  0  0
    9.2328   -7.1052   19.1619 He  0  0  0  0  0  0  0  0  0  0  0  0
  1 18  3  0
  1 23  2  0
  1 28  4  0
  2  6  1  0
  2 14  2  0
  2 25  4  0
  2 28  1  0
  3  5  2  0
  3  7  1  0
  3 10  3  0
  3 12  4  0
  3 17  2  0
  3 21  2  0
  4  7  2  0
  4 15  1  0
  4 16  2  0
  4 18  1  0
  4 19  1  0
  4 21  1  0
  4 22  1  0
  5 12  4  0
  5 13  4  0
  5 21  4  0
  6 10  1  0
  6 18  1  0
  6 19  4  0
  6 28  3  0
  7  8  1  0
  7 13  2  0
  7 16  3  0
  7 17  3  0
  7 21  3  0
  7 23  4  0
  7 28  2  0
  8 15  3  0
  8 18  4  0
  8 20  2  0
  8 26  3  0
  8 28  2  0
  9 26  4  0
  9 28  3  0
 10 22  1  0
 10 25  4  0
 10 28  3  0
 11 17  4  0
 11 18  1  0
 11 21  1  0
 12 26  1  0
 12 27  1  0
 13 17  2  0
 13 20  1  0
 13 24  2  0
 14 24  3  0
 15 17  1  0
 15 18  2  0
 15 21  3  0
 15 23  4  0
 15 27  1  0
 16 28  3  0
 17 18  3  0
 17 20  2  0
 17 22  3  0
 17 23  3  0
 17 24  3  0
 17 28  2  0
 18 19  4  0
 18 24  2  0
 18 26  3  0
 18 28  4  0
 19 24  4  0
 20 21  3  0
 20 22  3  0
 21 26  2  0
 21 27  2  0
 21 28  4  0
 22 24  4  0
 22 27  4  0
 22 28  4  0
 23 25  4  0
 24 28  3  0
 26 27  2  0
M  END
$$$$

 Created by Python create_sdf_string function

 34 30  0  0  0  0  0  0  0  0999 V2000
   10.0512   -1.2997   23.8590 C   0  0  0  0  0  0  0  0  0  0  0  0
    9.9271   -2.3881   23.8267 O   0  0  0  0  0  0  0  0  0  0  0  0
   10.3951   -5.4703   19.3983 C   0  0  0  0  0  0  0  0  0  0  0  0
    2.9963  -10.6385   18.3268 C   0  0  0  0  0  0  0  0  0  0  0  0
   10.0601   -4.3332   16.8982 C   0  0  0  0  0  0  0  0  0  0  0  0
    7.4940   -7.7027   15.2720 C   0  0  0  0  0  0  0  0  0  0  0  0
    3.1738  -11.6061   19.3259 N   0  0  0  0  0  0  0  0  0  0  0  0
    8.2511   -7.5259   17.4239 C   0  0  0  0  0  0  0  0  0  0  0  0
   10.6712   -4.1380   19.1854 O   0  0  0  0  0  0  0  0  0  0  0  0
    4.1644   -9.8534   17.7348 C   0  0  0  0  0  0  0  0  0  0  0  0
    9.4330   -5.3726   17.0761 C   0  0  0  0  0  0  0  0  0  0  0  0
    7.2239   -8.4757   17.0969 C   0  0  0  0  0  0  0  0  0  0  0  0
    7.7219   -5.5752   15.6668 O   0  0  0  0  0  0  0  0  0  0  0  0
   10.7395   -3.5574   17.9444 C   0  0  0  0  0  0  0  0  0  0  0  0
    6.1391   -6.9085   18.3604 O   0  0  0  0  0  0  0  0  0  0  0  0
    5.3705  -10.2305   18.0975 O   0  0  0  0  0  0  0  0  0  0  0  0
    1.6659   -9.4360   16.7502 N   0  0  0  0  0  0  0  0  0  0  0  0
    9.2623   -2.2130   26.1397 C   0  0  0  0  0  0  0  0  0  0  0  0
    8.3417   -8.1886   15.0344 C   0  0  0  0  0  0  0  0  0  0  0  0
   11.2998   -2.4249   17.7595 O   0  0  0  0  0  0  0  0  0  0  0  0
    5.7527   -7.7533   15.3421 C   0  0  0  0  0  0  0  0  0  0  0  0
    5.0308   -7.8268   16.4043 C   0  0  0  0  0  0  0  0  0  0  0  0
    8.4871   -5.3445   16.0674 C   0  0  0  0  0  0  0  0  0  0  0  0
    2.0452  -12.1902   19.7726 C   0  0  0  0  0  0  0  0  0  0  0  0
    9.1081   -0.9054   25.5605 C   0  0  0  0  0  0  0  0  0  0  0  0
    9.3278   -6.2407   17.6799 C   0  0  0  0  0  0  0  0  0  0  0  0
    0.7130  -11.0026   18.2993 C   0  0  0  0  0  0  0  0  0  0  0  0
    9.6750   -6.8625   18.7171 C   0  0  0  0  0  0  0  0  0  0  0  0
    4.0272   -8.8047   16.8132 C   0  0  0  0  0  0  0  0  0  0  0  0
    0.8447  -11.8082   19.3285 C   0  0  0  0  0  0  0  0  0  0  0  0
    2.7212   -8.7561   16.3306 C   0  0  0  0  0  0  0  0  0  0  0  0
    7.6159   -7.7620   17.6645 C   0  0  0  0  0  0  0  0  0  0  0  0
    1.7862  -10.3771   17.7949 C   0  0  0  0  0  0  0  0  0  0  0  0
    6.3104   -8.3479   18.1524 C   0  0  0  0  0  0  0  0  0  0  0  0
  1  2  1  0
  1 25  1  0
  3  9  1  0
  3 28  1  0
  4  7  4  0
  4 10  4  0
  4 33  4  0
  5 11  1  0
  5 14  1  0
  6 19  1  0
  6 21  1  0
  7 24  4  0
  8 32  1  0
  9 14  1  0
 10 16  4  0
 10 29  4  0
 11 23  4  0
 11 26  1  0
 13 23  1  0
 14 20  2  0
 17 31  4  0
 17 33  4  0
 18 25  1  0
 21 22  1  0
 22 29  1  0
 24 30  4  0
 26 28  1  0
 27 30  4  0
 27 33  4  0
 29 31  4  0
M  END
$$$$

 Created by Python create_sdf_string function

 34 92  0  0  0  0  0  0  0  0999 V2000
   10.0855   -1.2536   24.0010 C   0  0  0  0  0  0  0  0  0  0  0  0
    9.8070   -2.3915   24.1117 P   0  0  0  0  0  0  0  0  0  0  0  0
    3.0432   -9.8085   18.1201 C   0  0  0  0  0  0  0  0  0  0  0  0
   10.1268   -4.3466   17.1845 C   0  0  0  0  0  0  0  0  0  0  0  0
    7.7149   -7.6570   14.9450 C   0  0  0  0  0  0  0  0  0  0  0  0
    3.6934  -11.2115   19.1149 C   0  0  0  0  0  0  0  0  0  0  0  0
   10.8456   -4.3701   18.7676 O   0  0  0  0  0  0  0  0  0  0  0  0
    3.6642  -10.0343   17.2344 C   0  0  0  0  0  0  0  0  0  0  0  0
    9.6334   -5.1318   16.6785 O   0  0  0  0  0  0  0  0  0  0  0  0
    6.8640   -9.1211   16.2795 C   0  0  0  0  0  0  0  0  0  0  0  0
    7.3848   -5.6387   15.3702 C   0  0  0  0  0  0  0  0  0  0  0  0
   10.7603   -3.1118   18.2714 C   0  0  0  0  0  0  0  0  0  0  0  0
    6.0848   -6.5724   18.3557 O   0  0  0  0  0  0  0  0  0  0  0  0
    5.0951  -10.4193   17.2873 O   0  0  0  0  0  0  0  0  0  0  0  0
    2.4432   -9.8546   16.4637 N   0  0  0  0  0  0  0  0  0  0  0  0
    9.3034   -1.7848   25.8778 O   0  0  0  0  0  0  0  0  0  0  0  0
    8.7325   -7.6965   15.5039 C   0  0  0  0  0  0  0  0  0  0  0  0
   10.9200   -2.5695   17.4674 O   0  0  0  0  0  0  0  0  0  0  0  0
    4.8334   -8.1753   16.0561 C   0  0  0  0  0  0  0  0  0  0  0  0
    7.8220   -4.7087   14.8051 P   0  0  0  0  0  0  0  0  0  0  0  0
    2.3039  -12.9705   19.5679 C   0  0  0  0  0  0  0  0  0  0  0  0
   11.1249   -4.7487   16.3680 N   0  0  0  0  0  0  0  0  0  0  0  0
    0.5042  -11.2362   18.1421 F   0  0  0  0  0  0  0  0  0  0  0  0
    9.5611   -6.9874   18.4484 C   0  0  0  0  0  0  0  0  0  0  0  0
    3.6705   -8.5237   17.2694 C   0  0  0  0  0  0  0  0  0  0  0  0
    0.6120  -11.7032   19.2637 C   0  0  0  0  0  0  0  0  0  0  0  0
    3.1886   -8.5868   16.2103 C   0  0  0  0  0  0  0  0  0  0  0  0
    7.3740   -7.5378   17.2135 C   0  0  0  0  0  0  0  0  0  0  0  0
    1.5551  -10.1609   17.8861 C   0  0  0  0  0  0  0  0  0  0  0  0
    7.1220   -8.6406   18.2847 Se  0  0  0  0  0  0  0  0  0  0  0  0
    9.6170   -5.1105   19.4476 He  0  0  0  0  0  0  0  0  0  0  0  0
    8.3199   -8.2534   18.6089 He  0  0  0  0  0  0  0  0  0  0  0  0
    6.3803   -7.8146   14.8049 He  0  0  0  0  0  0  0  0  0  0  0  0
    9.4591   -0.7717   25.7386 He  0  0  0  0  0  0  0  0  0  0  0  0
  1  2  1  0
  1 17  2  0
  1 22  4  0
  2  8  1  0
  2 10  1  0
  2 15  1  0
  2 19  4  0
  2 20  2  0
  2 22  4  0
  2 25  1  0
  2 30  3  0
  3  6  2  0
  3  9  3  0
  3 12  3  0
  3 14  3  0
  3 22  4  0
  3 29  3  0
  4  9  1  0
  4 12  1  0
  4 16  4  0
  4 19  2  0
  4 20  2  0
  5 10  3  0
  5 16  4  0
  5 20  2  0
  6 16  3  0
  6 21  4  0
  6 22  4  0
  6 30  2  0
  7  8  4  0
  7 10  4  0
  7 11  4  0
  7 12  1  0
  8 13  3  0
  8 14  4  0
  8 22  4  0
  8 24  2  0
  8 25  4  0
  8 27  2  0
  9 10  1  0
  9 19  2  0
 10 21  3  0
 10 23  1  0
 10 25  3  0
 10 27  4  0
 10 28  4  0
 10 30  1  0
 11 25  2  0
 11 30  4  0
 12 20  4  0
 13 19  3  0
 13 20  2  0
 13 22  3  0
 13 30  3  0
 14 20  3  0
 15 16  1  0
 15 27  1  0
 16 20  2  0
 16 23  4  0
 16 28  1  0
 17 30  4  0
 18 23  4  0
 18 27  1  0
 18 29  4  0
 18 30  1  0
 19 20  2  0
 19 23  4  0
 19 28  3  0
 19 29  2  0
 19 30  1  0
 20 23  1  0
 20 25  2  0
 20 26  4  0
 21 24  3  0
 21 25  1  0
 21 26  4  0
 21 29  2  0
 22 24  3  0
 22 25  3  0
 22 26  2  0
 22 27  2  0
 22 28  2  0
 22 29  2  0
 23 27  2  0
 23 29  4  0
 24 29  4  0
 25 27  4  0
 25 30  2  0
 26 30  4  0
 27 29  1  0
 27 30  4  0
 28 29  3  0
M  END
$$$$

 Created by Python create_sdf_string function

 34 32  0  0  0  0  0  0  0  0999 V2000
   10.0181   -1.2401   23.9567 C   0  0  0  0  0  0  0  0  0  0  0  0
    9.9233   -2.4543   23.9227 C   0  0  0  0  0  0  0  0  0  0  0  0
    9.8776   -5.4227   19.2018 C   0  0  0  0  0  0  0  0  0  0  0  0
    2.9800  -10.6357   18.1032 C   0  0  0  0  0  0  0  0  0  0  0  0
    9.8680   -4.2402   16.9707 C   0  0  0  0  0  0  0  0  0  0  0  0
    7.4885   -7.6360   15.1054 C   0  0  0  0  0  0  0  0  0  0  0  0
    3.1628  -11.5988   19.1775 C   0  0  0  0  0  0  0  0  0  0  0  0
    8.5292   -7.3400   17.9401 C   0  0  0  0  0  0  0  0  0  0  0  0
   10.7232   -4.3491   19.1242 O   0  0  0  0  0  0  0  0  0  0  0  0
    4.0773   -9.9493   17.5840 C   0  0  0  0  0  0  0  0  0  0  0  0
    9.4201   -5.1477   16.7294 O   0  0  0  0  0  0  0  0  0  0  0  0
    6.4146   -8.7960   16.7680 C   0  0  0  0  0  0  0  0  0  0  0  0
    7.6289   -5.6990   15.4840 C   0  0  0  0  0  0  0  0  0  0  0  0
   10.7590   -3.5104   18.0320 C   0  0  0  0  0  0  0  0  0  0  0  0
    6.1676   -6.8850   18.4424 O   0  0  0  0  0  0  0  0  0  0  0  0
    5.3157  -10.3533   17.9107 O   0  0  0  0  0  0  0  0  0  0  0  0
    1.6068   -9.3754   16.6789 N   0  0  0  0  0  0  0  0  0  0  0  0
    9.1066   -1.9655   26.0286 O   0  0  0  0  0  0  0  0  0  0  0  0
    8.6949   -7.8018   15.4224 C   0  0  0  0  0  0  0  0  0  0  0  0
   11.2537   -2.4584   17.7816 O   0  0  0  0  0  0  0  0  0  0  0  0
    6.2286   -7.8764   14.9725 C   0  0  0  0  0  0  0  0  0  0  0  0
    5.2190   -8.1888   16.4001 C   0  0  0  0  0  0  0  0  0  0  0  0
    8.0286   -5.6453   15.6960 C   0  0  0  0  0  0  0  0  0  0  0  0
    2.0366  -12.2224   19.6508 C   0  0  0  0  0  0  0  0  0  0  0  0
    9.4124   -0.7664   25.5788 C   0  0  0  0  0  0  0  0  0  0  0  0
   10.0859   -4.6815   16.3545 C   0  0  0  0  0  0  0  0  0  0  0  0
    0.7178  -11.0224   18.1395 C   0  0  0  0  0  0  0  0  0  0  0  0
    9.5339   -6.6743   18.5311 C   0  0  0  0  0  0  0  0  0  0  0  0
    3.8534   -8.9608   16.7404 C   0  0  0  0  0  0  0  0  0  0  0  0
    0.8304  -11.9449   19.1532 C   0  0  0  0  0  0  0  0  0  0  0  0
    2.6685   -8.6711   16.2656 C   0  0  0  0  0  0  0  0  0  0  0  0
    7.6073   -7.7591   17.2479 C   0  0  0  0  0  0  0  0  0  0  0  0
    1.7285  -10.3088   17.6368 C   0  0  0  0  0  0  0  0  0  0  0  0
    6.7275   -7.9304   17.6172 C   0  0  0  0  0  0  0  0  0  0  0  0
  1  2  1  0
  1 25  1  0
  3  9  1  0
  3 28  1  0
  4  7  4  0
  4 10  4  0
  4 33  4  0
  5 11  1  0
  5 14  1  0
  6 19  1  0
  6 21  1  0
  7 24  4  0
  8 28  1  0
  8 32  1  0
  9 14  1  0
 10 16  4  0
 10 29  4  0
 11 26  1  0
 12 22  1  0
 12 34  1  0
 13 23  1  0
 14 20  2  0
 17 31  4  0
 17 33  4  0
 18 25  1  0
 21 22  1  0
 22 29  1  0
 24 30  4  0
 27 30  4  0
 27 33  4  0
 29 31  4  0
 32 34  1  0
M  END
$$$$

 Created by Python create_sdf_string function

 34 53  0  0  0  0  0  0  0  0999 V2000
    9.7059   -1.3831   24.3303 C   0  0  0  0  0  0  0  0  0  0  0  0
   10.1483   -5.1196   18.7734 C   0  0  0  0  0  0  0  0  0  0  0  0
    2.7846  -10.4341   17.7173 C   0  0  0  0  0  0  0  0  0  0  0  0
    9.9052   -4.2290   16.7141 C   0  0  0  0  0  0  0  0  0  0  0  0
    7.6284   -7.6617   14.5191 C   0  0  0  0  0  0  0  0  0  0  0  0
    3.1957  -12.0425   19.1403 C   0  0  0  0  0  0  0  0  0  0  0  0
   10.3568   -4.5648   18.9200 O   0  0  0  0  0  0  0  0  0  0  0  0
    4.0471  -10.0321   17.8621 C   0  0  0  0  0  0  0  0  0  0  0  0
    9.6875   -4.7031   16.8812 O   0  0  0  0  0  0  0  0  0  0  0  0
    7.1020   -5.6950   15.3542 C   0  0  0  0  0  0  0  0  0  0  0  0
   10.8864   -3.3138   17.5395 C   0  0  0  0  0  0  0  0  0  0  0  0
    5.4557  -10.2106   18.0432 O   0  0  0  0  0  0  0  0  0  0  0  0
    1.8553   -9.4905   16.0900 C   0  0  0  0  0  0  0  0  0  0  0  0
    9.4300   -1.1418   25.9445 N   0  0  0  0  0  0  0  0  0  0  0  0
    8.5074   -7.8751   15.8922 C   0  0  0  0  0  0  0  0  0  0  0  0
   11.0794   -2.0082   18.1444 O   0  0  0  0  0  0  0  0  0  0  0  0
    6.0508   -7.5211   15.1042 S   0  0  0  0  0  0  0  0  0  0  0  0
    4.6102   -8.5394   16.0356 C   0  0  0  0  0  0  0  0  0  0  0  0
   11.7573   -6.8481   16.4573 N   0  0  0  0  0  0  0  0  0  0  0  0
    1.2121  -11.0459   18.6693 P   0  0  0  0  0  0  0  0  0  0  0  0
    0.6257  -11.7628   19.2462 C   0  0  0  0  0  0  0  0  0  0  0  0
    1.3997  -10.2732   17.1955 C   0  0  0  0  0  0  0  0  0  0  0  0
    6.8741   -6.1386   18.2364 O   0  0  0  0  0  0  0  0  0  0  0  0
   10.7802   -2.5424   24.3650 He  0  0  0  0  0  0  0  0  0  0  0  0
    8.5002   -8.9445   20.0257 He  0  0  0  0  0  0  0  0  0  0  0  0
    7.6326   -7.9218   17.8886 He  0  0  0  0  0  0  0  0  0  0  0  0
    6.7516   -7.2694   18.3482 He  0  0  0  0  0  0  0  0  0  0  0  0
    7.9125   -5.0143   16.7417 He  0  0  0  0  0  0  0  0  0  0  0  0
    1.9329  -12.1999   19.6649 He  0  0  0  0  0  0  0  0  0  0  0  0
    9.1305   -0.3503   25.9359 He  0  0  0  0  0  0  0  0  0  0  0  0
    9.7851   -6.4520   18.6072 He  0  0  0  0  0  0  0  0  0  0  0  0
    4.1036   -8.9378   16.4770 He  0  0  0  0  0  0  0  0  0  0  0  0
    2.6021   -8.6935   16.0851 He  0  0  0  0  0  0  0  0  0  0  0  0
    7.4422   -7.6799   17.4965 He  0  0  0  0  0  0  0  0  0  0  0  0
  1  3  1  0
  1 13  3  0
  1 18  4  0
  1 19  4  0
  1 23  4  0
  2  5  3  0
  2  7  2  0
  2 21  3  0
  2 23  1  0
  3  6  4  0
  3  8  4  0
  3 19  4  0
  3 22  4  0
  4  9  1  0
  4 11  1  0
  4 16  4  0
  4 19  1  0
  5 10  3  0
  5 17  1  0
  5 19  1  0
  5 21  2  0
  6 10  2  0
  6 17  2  0
  7 19  4  0
  7 23  3  0
  8 12  4  0
  8 15  4  0
  8 17  4  0
  8 18  4  0
  9 18  2  0
  9 19  4  0
 10 18  3  0
 10 19  4  0
 10 20  2  0
 11 16  4  0
 11 19  1  0
 11 20  4  0
 12 16  4  0
 12 18  1  0
 13 18  1  0
 13 22  4  0
 14 17  3  0
 14 19  4  0
 14 21  3  0
 14 23  1  0
 15 23  1  0
 18 20  4  0
 18 21  1  0
 18 22  2  0
 19 20  1  0
 19 21  3  0
 19 23  2  0
 20 21  1  0
M  END
$$$$

 Created by Python create_sdf_string function

 34 34  0  0  0  0  0  0  0  0999 V2000
    9.7070   -1.3516   24.2332 C   0  0  0  0  0  0  0  0  0  0  0  0
   10.3720   -2.4004   24.3065 C   0  0  0  0  0  0  0  0  0  0  0  0
   10.0984   -5.3694   18.8104 C   0  0  0  0  0  0  0  0  0  0  0  0
    2.9808  -10.5993   18.0883 C   0  0  0  0  0  0  0  0  0  0  0  0
   10.2054   -4.0714   16.6742 C   0  0  0  0  0  0  0  0  0  0  0  0
    7.2844   -7.4643   15.0152 C   0  0  0  0  0  0  0  0  0  0  0  0
    3.0521  -11.6097   19.0881 C   0  0  0  0  0  0  0  0  0  0  0  0
    8.7604   -8.2461   18.6780 C   0  0  0  0  0  0  0  0  0  0  0  0
   10.5446   -4.4572   19.0782 O   0  0  0  0  0  0  0  0  0  0  0  0
    4.1092   -9.9300   17.6335 C   0  0  0  0  0  0  0  0  0  0  0  0
    9.3020   -4.9351   16.6562 O   0  0  0  0  0  0  0  0  0  0  0  0
    7.8884   -7.7780   17.4011 C   0  0  0  0  0  0  0  0  0  0  0  0
    7.4457   -5.8338   15.4829 C   0  0  0  0  0  0  0  0  0  0  0  0
   10.8467   -3.4334   17.8062 C   0  0  0  0  0  0  0  0  0  0  0  0
    6.3864   -7.2094   18.4845 O   0  0  0  0  0  0  0  0  0  0  0  0
    5.2784  -10.2221   18.3035 O   0  0  0  0  0  0  0  0  0  0  0  0
    1.7063   -9.4031   16.4687 C   0  0  0  0  0  0  0  0  0  0  0  0
    9.2565   -1.1315   26.3884 C   0  0  0  0  0  0  0  0  0  0  0  0
    8.4789   -8.0565   15.7426 C   0  0  0  0  0  0  0  0  0  0  0  0
   11.1227   -2.3625   18.0834 O   0  0  0  0  0  0  0  0  0  0  0  0
    5.8233   -7.8072   15.2709 C   0  0  0  0  0  0  0  0  0  0  0  0
    5.3934   -8.3277   16.4450 C   0  0  0  0  0  0  0  0  0  0  0  0
    8.4092   -5.7188   16.4044 C   0  0  0  0  0  0  0  0  0  0  0  0
    1.9293  -12.0952   19.5998 C   0  0  0  0  0  0  0  0  0  0  0  0
    9.1738   -0.5427   25.4213 C   0  0  0  0  0  0  0  0  0  0  0  0
    9.8760   -6.4800   17.0233 C   0  0  0  0  0  0  0  0  0  0  0  0
    0.6622  -10.9181   18.0998 C   0  0  0  0  0  0  0  0  0  0  0  0
    9.6242   -6.5234   18.5638 C   0  0  0  0  0  0  0  0  0  0  0  0
    4.0666   -9.0410   16.6938 C   0  0  0  0  0  0  0  0  0  0  0  0
    0.7291  -11.7202   19.1510 C   0  0  0  0  0  0  0  0  0  0  0  0
    2.8616   -8.8321   16.0197 C   0  0  0  0  0  0  0  0  0  0  0  0
    6.7711   -7.8702   17.3451 C   0  0  0  0  0  0  0  0  0  0  0  0
    1.7376  -10.3114   17.5056 C   0  0  0  0  0  0  0  0  0  0  0  0
    7.3395   -6.9056   17.8043 C   0  0  0  0  0  0  0  0  0  0  0  0
  1  2  1  0
  1 25  1  0
  3  9  1  0
  3 28  1  0
  4  7  4  0
  4 10  4  0
  4 33  4  0
  5 11  1  0
  5 14  1  0
  6 13  1  0
  6 19  1  0
  6 21  1  0
  7 24  4  0
  8 12  1  0
  9 14  1  0
 10 16  1  0
 10 29  4  0
 11 23  1  0
 12 19  1  0
 12 32  1  0
 13 23  1  0
 14 20  2  0
 15 34  1  0
 17 31  4  0
 17 33  4  0
 18 25  1  0
 21 22  1  0
 22 29  1  0
 22 32  1  0
 24 30  4  0
 27 30  4  0
 27 33  4  0
 29 31  4  0
 32 34  1  0
M  END
$$$$

 Created by Python create_sdf_string function

 34 71  0  0  0  0  0  0  0  0999 V2000
    9.5845   -1.4844   24.3310 C   0  0  0  0  0  0  0  0  0  0  0  0
   10.4572   -2.4766   24.9117 C   0  0  0  0  0  0  0  0  0  0  0  0
   10.1798   -5.5851   18.4495 C   0  0  0  0  0  0  0  0  0  0  0  0
    3.3147  -10.5028   18.1077 C   0  0  0  0  0  0  0  0  0  0  0  0
   10.2656   -4.0210   16.6231 F   0  0  0  0  0  0  0  0  0  0  0  0
    3.1241  -12.2261   18.7734 C   0  0  0  0  0  0  0  0  0  0  0  0
   10.8505   -4.6508   18.6162 O   0  0  0  0  0  0  0  0  0  0  0  0
    4.7477   -9.5130   17.7527 C   0  0  0  0  0  0  0  0  0  0  0  0
    9.6084   -4.9096   16.3555 Br  0  0  0  0  0  0  0  0  0  0  0  0
   11.1058   -3.0037   17.8692 C   0  0  0  0  0  0  0  0  0  0  0  0
    6.3913   -7.1141   18.6645 O   0  0  0  0  0  0  0  0  0  0  0  0
    5.5112  -10.2945   17.9035 O   0  0  0  0  0  0  0  0  0  0  0  0
    0.8293   -9.4360   16.6889 C   0  0  0  0  0  0  0  0  0  0  0  0
    9.3109   -0.6681   26.8750 C   0  0  0  0  0  0  0  0  0  0  0  0
    8.7881   -7.4795   15.2123 C   0  0  0  0  0  0  0  0  0  0  0  0
   11.6673   -2.6658   18.6309 O   0  0  0  0  0  0  0  0  0  0  0  0
    6.2213   -7.4357   15.2100 C   0  0  0  0  0  0  0  0  0  0  0  0
    5.6839   -8.5415   17.9737 P   0  0  0  0  0  0  0  0  0  0  0  0
    9.0989   -5.2453   17.2501 I   0  0  0  0  0  0  0  0  0  0  0  0
    1.6009  -11.9672   18.8190 C   0  0  0  0  0  0  0  0  0  0  0  0
    9.4225   -0.8113   25.6735 C   0  0  0  0  0  0  0  0  0  0  0  0
    0.6650  -11.6095   18.2524 C   0  0  0  0  0  0  0  0  0  0  0  0
    4.2157   -9.0012   16.7054 B   0  0  0  0  0  0  0  0  0  0  0  0
    0.6650  -12.0618   18.8061 C   0  0  0  0  0  0  0  0  0  0  0  0
    3.2589   -9.1967   16.0215 C   0  0  0  0  0  0  0  0  0  0  0  0
    6.8968   -8.1749   16.9223 C   0  0  0  0  0  0  0  0  0  0  0  0
    2.0534  -10.2388   17.6397 C   0  0  0  0  0  0  0  0  0  0  0  0
    7.1475   -7.2306   14.7664 He  0  0  0  0  0  0  0  0  0  0  0  0
    6.7454  -10.0428   20.2473 He  0  0  0  0  0  0  0  0  0  0  0  0
    8.3116   -7.4411   17.9109 He  0  0  0  0  0  0  0  0  0  0  0  0
    7.2859   -5.6651   15.5225 He  0  0  0  0  0  0  0  0  0  0  0  0
    9.2927   -7.8279   16.1400 He  0  0  0  0  0  0  0  0  0  0  0  0
    9.3324   -6.1634   18.1002 He  0  0  0  0  0  0  0  0  0  0  0  0
    6.3385   -7.7152   16.8434 He  0  0  0  0  0  0  0  0  0  0  0  0
  1  2  1  0
  1 14  1  0
  1 15  3  0
  1 18  2  0
  1 19  2  0
  1 20  2  0
  1 21  1  0
  1 25  3  0
  2  8  2  0
  3 14  3  0
  3 17  3  0
  3 19  1  0
  4  5  4  0
  4  6  3  0
  4  8  4  0
  4 12  3  0
  4 16  4  0
  4 19  3  0
  5 10  1  0
  5 17  1  0
  5 25  3  0
  6 11  4  0
  6 17  3  0
  6 20  4  0
  6 26  1  0
  7  8  3  0
  7 10  1  0
  7 15  3  0
  7 16  4  0
  7 18  3  0
  8 12  1  0
  8 15  4  0
  8 18  2  0
  8 23  4  0
  9 15  4  0
  9 19  2  0
 10 16  2  0
 10 18  2  0
 11 13  4  0
 11 18  4  0
 11 27  3  0
 12 13  3  0
 12 23  1  0
 12 26  4  0
 13 18  2  0
 13 19  3  0
 13 25  4  0
 14 15  2  0
 14 19  4  0
 14 21  1  0
 14 25  3  0
 15 18  3  0
 15 19  4  0
 15 23  3  0
 16 18  2  0
 16 23  1  0
 16 27  1  0
 17 18  1  0
 17 19  1  0
 18 23  1  0
 18 24  3  0
 18 25  1  0
 18 27  3  0
 19 20  1  0
 19 22  3  0
 19 23  3  0
 20 26  1  0
 22 23  4  0
 22 24  3  0
 22 27  4  0
 23 25  4  0
M  END
$$$$

 Created by Python create_sdf_string function

 34 34  0  0  0  0  0  0  0  0999 V2000
    9.6161   -1.4240   24.4576 C   0  0  0  0  0  0  0  0  0  0  0  0
   10.3980   -2.5813   24.9159 C   0  0  0  0  0  0  0  0  0  0  0  0
   10.0190   -5.5989   18.5387 C   0  0  0  0  0  0  0  0  0  0  0  0
    3.0029  -10.6751   18.0409 C   0  0  0  0  0  0  0  0  0  0  0  0
   10.3521   -3.7866   16.6926 C   0  0  0  0  0  0  0  0  0  0  0  0
    7.2956   -6.8705   15.0843 C   0  0  0  0  0  0  0  0  0  0  0  0
    3.0379  -11.7436   18.9976 C   0  0  0  0  0  0  0  0  0  0  0  0
    6.1813   -8.9453   19.4278 O   0  0  0  0  0  0  0  0  0  0  0  0
   10.7989   -4.4840   18.8037 O   0  0  0  0  0  0  0  0  0  0  0  0
    4.1255   -9.8750   17.6032 C   0  0  0  0  0  0  0  0  0  0  0  0
    9.5513   -4.8496   16.3066 C   0  0  0  0  0  0  0  0  0  0  0  0
    8.3831   -7.1883   17.6049 C   0  0  0  0  0  0  0  0  0  0  0  0
    7.3489   -5.6117   15.4087 O   0  0  0  0  0  0  0  0  0  0  0  0
   10.8755   -3.4932   17.9470 C   0  0  0  0  0  0  0  0  0  0  0  0
    6.3951   -6.9315   18.7075 O   0  0  0  0  0  0  0  0  0  0  0  0
    5.3981  -10.1250   18.1412 O   0  0  0  0  0  0  0  0  0  0  0  0
    1.6746   -9.3894   16.5054 C   0  0  0  0  0  0  0  0  0  0  0  0
    9.2984   -0.7473   26.9242 C   0  0  0  0  0  0  0  0  0  0  0  0
    8.5233   -7.6783   15.1682 C   0  0  0  0  0  0  0  0  0  0  0  0
   11.3319   -2.3457   18.2825 O   0  0  0  0  0  0  0  0  0  0  0  0
    6.1312   -7.5374   15.2996 C   0  0  0  0  0  0  0  0  0  0  0  0
    5.8891   -8.3915   17.5657 C   0  0  0  0  0  0  0  0  0  0  0  0
    9.3686   -5.6903   17.2158 C   0  0  0  0  0  0  0  0  0  0  0  0
    1.9410  -12.4165   19.3239 C   0  0  0  0  0  0  0  0  0  0  0  0
    9.1902   -0.4962   25.5299 C   0  0  0  0  0  0  0  0  0  0  0  0
    8.8146   -7.9598   16.3240 C   0  0  0  0  0  0  0  0  0  0  0  0
    0.7130  -10.9889   17.9064 C   0  0  0  0  0  0  0  0  0  0  0  0
    9.2995   -6.4493   18.1928 C   0  0  0  0  0  0  0  0  0  0  0  0
    3.9415   -8.9662   16.7519 C   0  0  0  0  0  0  0  0  0  0  0  0
    0.7383  -12.0814   18.8208 C   0  0  0  0  0  0  0  0  0  0  0  0
    2.7847   -8.7195   16.1201 C   0  0  0  0  0  0  0  0  0  0  0  0
    6.8968   -8.5350   17.1397 C   0  0  0  0  0  0  0  0  0  0  0  0
    1.8029  -10.3402   17.4841 C   0  0  0  0  0  0  0  0  0  0  0  0
    6.8302   -8.0858   16.9180 C   0  0  0  0  0  0  0  0  0  0  0  0
  1  2  1  0
  1 25  1  0
  3  9  1  0
  3 23  1  0
  3 28  1  0
  4  7  4  0
  4 10  4  0
  4 33  4  0
  5 11  1  0
  5 14  1  0
  6 13  1  0
  6 19  1  0
  6 21  1  0
  7 24  4  0
  9 14  1  0
 10 16  1  0
 10 29  4  0
 11 23  1  0
 12 23  1  0
 12 26  1  0
 12 28  1  0
 14 20  2  0
 17 31  4  0
 17 33  4  0
 18 25  1  0
 19 26  1  0
 21 34  1  0
 22 32  1  0
 23 28  1  0
 24 30  4  0
 27 30  4  0
 27 33  4  0
 29 31  4  0
 32 34  1  0
M  END
$$$$

 Created by Python create_sdf_string function

 34 74  0  0  0  0  0  0  0  0999 V2000
    9.6770   -0.9083   24.3355 P   0  0  0  0  0  0  0  0  0  0  0  0
   10.4792   -1.6898   24.9197 C   0  0  0  0  0  0  0  0  0  0  0  0
    3.0544  -10.4760   17.9198 C   0  0  0  0  0  0  0  0  0  0  0  0
   10.3004   -4.2329   16.6912 C   0  0  0  0  0  0  0  0  0  0  0  0
    7.4598   -7.0307   15.3893 C   0  0  0  0  0  0  0  0  0  0  0  0
    2.9334  -11.7373   19.8658 Se  0  0  0  0  0  0  0  0  0  0  0  0
    6.7808  -11.6123   19.2530 F   0  0  0  0  0  0  0  0  0  0  0  0
   10.8767   -4.8842   18.8267 O   0  0  0  0  0  0  0  0  0  0  0  0
    4.1255  -10.2905   17.5001 C   0  0  0  0  0  0  0  0  0  0  0  0
    9.2416   -4.8510   16.9359 C   0  0  0  0  0  0  0  0  0  0  0  0
    8.7000   -7.1044   16.9843 B   0  0  0  0  0  0  0  0  0  0  0  0
    7.1953   -5.6191   15.3016 O   0  0  0  0  0  0  0  0  0  0  0  0
    6.0263   -7.0394   18.7881 O   0  0  0  0  0  0  0  0  0  0  0  0
    5.5186  -10.1899   18.0075 O   0  0  0  0  0  0  0  0  0  0  0  0
    9.5803   -0.2822   27.2598 C   0  0  0  0  0  0  0  0  0  0  0  0
    8.5664   -7.0360   15.5142 C   0  0  0  0  0  0  0  0  0  0  0  0
   11.0217   -2.0055   18.1568 O   0  0  0  0  0  0  0  0  0  0  0  0
    6.1453   -7.5170   15.1681 C   0  0  0  0  0  0  0  0  0  0  0  0
    2.0613  -12.3256   19.5507 C   0  0  0  0  0  0  0  0  0  0  0  0
    9.1092   -0.3258   25.3027 C   0  0  0  0  0  0  0  0  0  0  0  0
    9.8916   -5.4742   15.7219 C   0  0  0  0  0  0  0  0  0  0  0  0
    9.8566   -6.0630   18.3589 C   0  0  0  0  0  0  0  0  0  0  0  0
    3.7297   -9.0211   16.4261 C   0  0  0  0  0  0  0  0  0  0  0  0
    2.7576   -9.1709   15.7798 C   0  0  0  0  0  0  0  0  0  0  0  0
    1.6828  -10.1378   17.8859 C   0  0  0  0  0  0  0  0  0  0  0  0
    9.8364   -6.3566   18.7243 He  0  0  0  0  0  0  0  0  0  0  0  0
   10.7803   -3.5855   17.5707 He  0  0  0  0  0  0  0  0  0  0  0  0
    1.5734   -9.3997   16.5558 He  0  0  0  0  0  0  0  0  0  0  0  0
    6.7826   -8.0197   17.7602 He  0  0  0  0  0  0  0  0  0  0  0  0
    8.5795   -5.3344   17.6868 He  0  0  0  0  0  0  0  0  0  0  0  0
    1.4249  -10.8270   18.3699 He  0  0  0  0  0  0  0  0  0  0  0  0
    1.0199  -12.7288   19.3169 He  0  0  0  0  0  0  0  0  0  0  0  0
    7.3637   -8.3195   17.4865 He  0  0  0  0  0  0  0  0  0  0  0  0
    5.9584   -6.4515   16.2163 He  0  0  0  0  0  0  0  0  0  0  0  0
  1  2  1  0
  1  6  2  0
  1  8  4  0
  1  9  3  0
  1 10  2  0
  1 11  3  0
  1 12  2  0
  1 13  1  0
  1 23  4  0
  2  7  2  0
  2 11  2  0
  2 24  4  0
  3  9  4  0
  3 11  1  0
  3 13  4  0
  3 15  4  0
  3 24  1  0
  3 25  4  0
  4  7  4  0
  4 10  1  0
  4 11  1  0
  4 15  3  0
  4 16  2  0
  4 24  3  0
  5  8  3  0
  5 11  4  0
  5 12  1  0
  5 16  1  0
  5 17  3  0
  5 18  1  0
  5 21  1  0
  5 24  2  0
  6 11  2  0
  6 19  4  0
  6 24  3  0
  7 12  2  0
  7 16  2  0
  7 17  2  0
  7 18  2  0
  7 19  3  0
  7 23  3  0
  7 24  1  0
  7 25  3  0
  8 11  2  0
  8 23  4  0
  9 14  1  0
  9 17  4  0
  9 23  4  0
 10 11  4  0
 10 17  3  0
 11 17  4  0
 11 24  1  0
 12 15  1  0
 12 16  1  0
 12 18  1  0
 12 19  4  0
 12 20  3  0
 12 23  4  0
 13 21  3  0
 14 17  2  0
 14 21  4  0
 14 23  4  0
 14 25  4  0
 16 21  3  0
 17 21  4  0
 17 22  4  0
 17 24  1  0
 18 21  2  0
 19 21  1  0
 19 22  2  0
 20 21  1  0
 20 23  3  0
 20 24  1  0
 21 23  1  0
M  END
$$$$

 Created by Python create_sdf_string function

 34 34  0  0  0  0  0  0  0  0999 V2000
    9.6712   -0.9532   24.3498 C   0  0  0  0  0  0  0  0  0  0  0  0
   10.4781   -1.8717   24.8181 C   0  0  0  0  0  0  0  0  0  0  0  0
   10.1976   -5.8335   18.8971 C   0  0  0  0  0  0  0  0  0  0  0  0
    3.0761  -10.5662   18.1469 C   0  0  0  0  0  0  0  0  0  0  0  0
   10.2092   -4.0220   16.7373 C   0  0  0  0  0  0  0  0  0  0  0  0
    7.3933   -6.9843   15.3157 C   0  0  0  0  0  0  0  0  0  0  0  0
    3.1427  -11.4789   19.2264 N   0  0  0  0  0  0  0  0  0  0  0  0
    5.8844   -9.5756   18.6184 C   0  0  0  0  0  0  0  0  0  0  0  0
   10.9714   -4.5283   18.9843 O   0  0  0  0  0  0  0  0  0  0  0  0
    4.0840   -9.8319   17.5988 C   0  0  0  0  0  0  0  0  0  0  0  0
    9.3778   -4.9169   16.6286 C   0  0  0  0  0  0  0  0  0  0  0  0
    8.2683   -7.2434   17.3761 C   0  0  0  0  0  0  0  0  0  0  0  0
    7.2053   -5.5211   15.2280 O   0  0  0  0  0  0  0  0  0  0  0  0
   10.8324   -3.5982   18.0265 C   0  0  0  0  0  0  0  0  0  0  0  0
    6.0192   -7.0606   18.5149 O   0  0  0  0  0  0  0  0  0  0  0  0
    5.4226   -9.9924   18.0533 O   0  0  0  0  0  0  0  0  0  0  0  0
    1.4969   -9.6580   16.6911 C   0  0  0  0  0  0  0  0  0  0  0  0
    9.4706   -0.3898   26.8914 C   0  0  0  0  0  0  0  0  0  0  0  0
    8.6359   -7.3554   15.2076 C   0  0  0  0  0  0  0  0  0  0  0  0
   11.2603   -2.4010   18.1892 O   0  0  0  0  0  0  0  0  0  0  0  0
    6.1425   -7.5728   15.3904 C   0  0  0  0  0  0  0  0  0  0  0  0
    6.5496   -8.2882   17.9553 C   0  0  0  0  0  0  0  0  0  0  0  0
    8.7907   -6.1893   17.1988 C   0  0  0  0  0  0  0  0  0  0  0  0
    1.8638  -11.9902   19.4691 C   0  0  0  0  0  0  0  0  0  0  0  0
    8.9137   -0.1658   25.4367 C   0  0  0  0  0  0  0  0  0  0  0  0
    9.0064   -5.5794   15.9575 C   0  0  0  0  0  0  0  0  0  0  0  0
    0.9284  -11.1222   18.2916 N   0  0  0  0  0  0  0  0  0  0  0  0
    9.8107   -6.3159   18.5007 C   0  0  0  0  0  0  0  0  0  0  0  0
    3.7113   -9.1036   16.6224 C   0  0  0  0  0  0  0  0  0  0  0  0
    0.9931  -12.3283   19.5316 C   0  0  0  0  0  0  0  0  0  0  0  0
    2.4603   -8.9656   16.0539 C   0  0  0  0  0  0  0  0  0  0  0  0
    7.4858   -8.4782   17.4416 O   0  0  0  0  0  0  0  0  0  0  0  0
    1.8237  -10.4442   17.6822 C   0  0  0  0  0  0  0  0  0  0  0  0
    5.9634   -7.3123   15.9692 C   0  0  0  0  0  0  0  0  0  0  0  0
  1  2  1  0
  1 25  1  0
  3  9  1  0
  3 28  1  0
  4  7  4  0
  4 10  4  0
  4 33  4  0
  5 11  1  0
  5 14  1  0
  6 13  1  0
  6 19  1  0
  6 21  1  0
  7 24  4  0
  8 16  1  0
  8 22  1  0
  9 14  1  0
 10 16  1  0
 10 29  4  0
 11 23  1  0
 11 26  1  0
 12 23  1  0
 12 32  1  0
 14 20  2  0
 15 22  1  0
 17 31  4  0
 17 33  4  0
 18 25  1  0
 21 34  1  0
 22 32  1  0
 24 27  4  0
 24 30  4  0
 27 30  4  0
 27 33  4  0
 29 31  4  0
M  END
$$$$

 Created by Python create_sdf_string function

 34 76  0  0  0  0  0  0  0  0999 V2000
    9.6638   -1.1769   24.6149 C   0  0  0  0  0  0  0  0  0  0  0  0
   10.5085   -1.8712   24.8810 O   0  0  0  0  0  0  0  0  0  0  0  0
   10.1896   -6.0671   19.1385 C   0  0  0  0  0  0  0  0  0  0  0  0
    2.2865  -10.8890   18.5764 C   0  0  0  0  0  0  0  0  0  0  0  0
   10.1826   -3.6457   17.0419 C   0  0  0  0  0  0  0  0  0  0  0  0
    6.8302   -7.0607   14.8574 C   0  0  0  0  0  0  0  0  0  0  0  0
    3.2510  -12.0793   19.8438 N   0  0  0  0  0  0  0  0  0  0  0  0
    5.4270   -9.9578   19.7791 O   0  0  0  0  0  0  0  0  0  0  0  0
   10.5670   -4.8584   19.1804 O   0  0  0  0  0  0  0  0  0  0  0  0
    3.8751   -9.6463   17.7228 C   0  0  0  0  0  0  0  0  0  0  0  0
    9.3743   -4.7114   16.7307 C   0  0  0  0  0  0  0  0  0  0  0  0
    6.8558   -6.2710   15.7021 O   0  0  0  0  0  0  0  0  0  0  0  0
   10.6828   -3.5062   17.8446 C   0  0  0  0  0  0  0  0  0  0  0  0
    5.5748   -9.6090   17.9835 O   0  0  0  0  0  0  0  0  0  0  0  0
    1.7473   -9.9132   16.5230 C   0  0  0  0  0  0  0  0  0  0  0  0
   10.1021   -0.4325   26.3864 C   0  0  0  0  0  0  0  0  0  0  0  0
    8.4595   -7.1469   15.7132 C   0  0  0  0  0  0  0  0  0  0  0  0
   11.1413   -2.8351   17.7687 O   0  0  0  0  0  0  0  0  0  0  0  0
    6.3209   -7.9699   16.0592 C   0  0  0  0  0  0  0  0  0  0  0  0
    6.4393   -8.7461   18.7438 S   0  0  0  0  0  0  0  0  0  0  0  0
    2.1342  -11.5217   19.7629 C   0  0  0  0  0  0  0  0  0  0  0  0
    1.5588  -11.3968   18.4664 O   0  0  0  0  0  0  0  0  0  0  0  0
    9.4641   -6.0370   18.1819 C   0  0  0  0  0  0  0  0  0  0  0  0
    0.7899  -12.1396   19.4755 S   0  0  0  0  0  0  0  0  0  0  0  0
    2.0935   -9.2159   15.8924 C   0  0  0  0  0  0  0  0  0  0  0  0
    1.3684  -10.3324   17.7420 C   0  0  0  0  0  0  0  0  0  0  0  0
    6.6263   -8.3746   19.4154 He  0  0  0  0  0  0  0  0  0  0  0  0
    6.0884   -7.2589   19.4384 He  0  0  0  0  0  0  0  0  0  0  0  0
    8.3584   -6.8587   16.6874 He  0  0  0  0  0  0  0  0  0  0  0  0
    8.9053    0.0424   25.9768 He  0  0  0  0  0  0  0  0  0  0  0  0
    8.5142   -4.9305   16.9560 He  0  0  0  0  0  0  0  0  0  0  0  0
    4.3121   -9.4407   16.2355 He  0  0  0  0  0  0  0  0  0  0  0  0
    7.2375   -8.3361   17.0768 He  0  0  0  0  0  0  0  0  0  0  0  0
    6.1331   -6.7356   15.7288 He  0  0  0  0  0  0  0  0  0  0  0  0
  1  2  1  0
  1 10  3  0
  1 12  3  0
  1 17  4  0
  1 19  4  0
  1 21  3  0
  1 25  1  0
  2 23  2  0
  3  8  1  0
  3  9  1  0
  3 10  3  0
  3 23  4  0
  4  7  4  0
  4  8  3  0
  4 10  4  0
  4 26  4  0
  5  8  1  0
  5 11  1  0
  5 13  1  0
  5 22  2  0
  5 23  3  0
  6 11  1  0
  6 12  1  0
  6 19  1  0
  6 20  3  0
  6 24  2  0
  6 26  1  0
  7  8  1  0
  7 11  3  0
  7 21  4  0
  8 11  4  0
  8 13  4  0
  8 14  2  0
  8 15  1  0
  8 16  2  0
  8 18  4  0
  8 19  4  0
  8 26  1  0
  9 13  1  0
  9 22  4  0
  9 24  2  0
 10 11  1  0
 10 13  4  0
 10 14  1  0
 10 21  1  0
 11 13  2  0
 11 14  4  0
 11 20  3  0
 11 24  1  0
 12 15  4  0
 12 19  1  0
 12 22  2  0
 13 15  2  0
 13 18  2  0
 13 23  4  0
 13 25  2  0
 13 26  4  0
 14 16  4  0
 14 26  4  0
 15 25  4  0
 15 26  4  0
 16 18  1  0
 17 20  4  0
 17 21  4  0
 17 23  1  0
 18 19  1  0
 19 22  4  0
 20 24  1  0
 20 25  3  0
 20 26  4  0
 21 22  4  0
 21 24  2  0
 21 26  2  0
 22 23  1  0
 22 24  4  0
 22 26  4  0
M  END
$$$$

 Created by Python create_sdf_string function

 34 33  0  0  0  0  0  0  0  0999 V2000
    9.5099   -1.0967   24.5181 C   0  0  0  0  0  0  0  0  0  0  0  0
   10.4561   -1.9187   24.8606 O   0  0  0  0  0  0  0  0  0  0  0  0
   10.0897   -5.7680   18.9589 C   0  0  0  0  0  0  0  0  0  0  0  0
    2.9250  -10.6263   18.3051 C   0  0  0  0  0  0  0  0  0  0  0  0
   10.0693   -3.9644   16.9312 C   0  0  0  0  0  0  0  0  0  0  0  0
    6.8877   -6.9973   15.0489 C   0  0  0  0  0  0  0  0  0  0  0  0
    3.1998  -11.3524   19.4364 N   0  0  0  0  0  0  0  0  0  0  0  0
    5.7778   -9.3773   19.3177 O   0  0  0  0  0  0  0  0  0  0  0  0
   10.7438   -4.5723   19.1458 O   0  0  0  0  0  0  0  0  0  0  0  0
    3.9176   -9.7683   17.6295 C   0  0  0  0  0  0  0  0  0  0  0  0
    9.3541   -4.7732   16.3682 C   0  0  0  0  0  0  0  0  0  0  0  0
    6.8094   -8.2088   18.4404 C   0  0  0  0  0  0  0  0  0  0  0  0
    6.8249   -5.8157   15.4627 O   0  0  0  0  0  0  0  0  0  0  0  0
   10.7171   -3.7248   18.0811 C   0  0  0  0  0  0  0  0  0  0  0  0
    6.1523   -7.2335   19.0524 O   0  0  0  0  0  0  0  0  0  0  0  0
    5.2930   -9.6315   18.1457 O   0  0  0  0  0  0  0  0  0  0  0  0
    1.4148   -9.8772   16.5990 C   0  0  0  0  0  0  0  0  0  0  0  0
   10.1506   -0.2955   26.7160 C   0  0  0  0  0  0  0  0  0  0  0  0
    8.6069   -7.0879   15.5576 C   0  0  0  0  0  0  0  0  0  0  0  0
   11.2875   -2.5882   18.1607 O   0  0  0  0  0  0  0  0  0  0  0  0
    6.2313   -7.9377   15.8546 C   0  0  0  0  0  0  0  0  0  0  0  0
    6.2653   -8.3919   18.2801 C   0  0  0  0  0  0  0  0  0  0  0  0
    8.1209   -7.2408   16.9557 C   0  0  0  0  0  0  0  0  0  0  0  0
    2.1784  -12.0429   19.9649 C   0  0  0  0  0  0  0  0  0  0  0  0
    8.9754   -0.1563   25.7477 C   0  0  0  0  0  0  0  0  0  0  0  0
    8.9551   -5.9404   16.8491 C   0  0  0  0  0  0  0  0  0  0  0  0
    0.6965  -11.2944   18.4210 C   0  0  0  0  0  0  0  0  0  0  0  0
    9.4138   -6.3591   18.2466 C   0  0  0  0  0  0  0  0  0  0  0  0
    3.5402   -9.1155   16.4529 C   0  0  0  0  0  0  0  0  0  0  0  0
    0.8963  -11.9838   19.4522 C   0  0  0  0  0  0  0  0  0  0  0  0
    2.3250   -9.1668   15.9776 C   0  0  0  0  0  0  0  0  0  0  0  0
    7.5602   -8.4644   17.1311 C   0  0  0  0  0  0  0  0  0  0  0  0
    1.6930  -10.6085   17.7414 C   0  0  0  0  0  0  0  0  0  0  0  0
    6.0040   -7.7190   16.0333 C   0  0  0  0  0  0  0  0  0  0  0  0
  1  2  1  0
  1 25  1  0
  3  9  1  0
  3 28  1  0
  4  7  4  0
  4 10  4  0
  4 33  4  0
  5 11  1  0
  5 14  1  0
  6 13  1  0
  6 19  1  0
  6 21  1  0
  7 24  4  0
  8 16  1  0
  9 14  1  0
 10 16  1  0
 10 29  4  0
 11 26  1  0
 12 22  1  0
 14 20  2  0
 16 22  1  0
 17 31  4  0
 17 33  4  0
 18 25  1  0
 19 23  1  0
 19 26  1  0
 21 34  1  0
 23 32  1  0
 24 30  4  0
 26 28  1  0
 27 30  4  0
 27 33  4  0
 29 31  4  0
M  END
$$$$

 Created by Python create_sdf_string function

 34 76  0  0  0  0  0  0  0  0999 V2000
    9.6792   -0.5994   24.3859 C   0  0  0  0  0  0  0  0  0  0  0  0
   10.7988   -1.7683   24.5865 O   0  0  0  0  0  0  0  0  0  0  0  0
    9.6936   -6.0178   18.8469 C   0  0  0  0  0  0  0  0  0  0  0  0
    3.2481  -10.3393   18.4835 C   0  0  0  0  0  0  0  0  0  0  0  0
    9.7344   -3.7271   17.0704 C   0  0  0  0  0  0  0  0  0  0  0  0
    6.2325   -7.1297   14.6401 C   0  0  0  0  0  0  0  0  0  0  0  0
    3.0035  -11.5281   19.9082 N   0  0  0  0  0  0  0  0  0  0  0  0
    3.6487   -9.3855   17.3665 C   0  0  0  0  0  0  0  0  0  0  0  0
    9.2686   -4.8474   16.6267 C   0  0  0  0  0  0  0  0  0  0  0  0
    5.4450   -9.2672   18.6246 C   0  0  0  0  0  0  0  0  0  0  0  0
    6.7294   -5.9546   15.8197 O   0  0  0  0  0  0  0  0  0  0  0  0
   10.7033   -3.6741   18.0553 C   0  0  0  0  0  0  0  0  0  0  0  0
    6.6061   -6.4662   19.2442 O   0  0  0  0  0  0  0  0  0  0  0  0
    5.4800   -9.8701   18.2573 O   0  0  0  0  0  0  0  0  0  0  0  0
    1.4662  -10.3651   16.1955 C   0  0  0  0  0  0  0  0  0  0  0  0
    7.6943   -7.1972   15.6936 C   0  0  0  0  0  0  0  0  0  0  0  0
    6.0623   -8.5492   15.8278 C   0  0  0  0  0  0  0  0  0  0  0  0
    2.0496  -12.1658   20.1106 C   0  0  0  0  0  0  0  0  0  0  0  0
    8.7612    0.3771   25.6063 C   0  0  0  0  0  0  0  0  0  0  0  0
    9.2051   -5.6316   16.6062 S   0  0  0  0  0  0  0  0  0  0  0  0
    0.9297  -10.8265   18.3998 C   0  0  0  0  0  0  0  0  0  0  0  0
    9.1879   -6.6579   18.5528 C   0  0  0  0  0  0  0  0  0  0  0  0
    3.5307   -9.1516   16.2389 C   0  0  0  0  0  0  0  0  0  0  0  0
    2.7649   -8.8429   16.0163 F   0  0  0  0  0  0  0  0  0  0  0  0
    7.1276   -8.9042   17.1472 C   0  0  0  0  0  0  0  0  0  0  0  0
    1.6717  -10.5618   17.5523 O   0  0  0  0  0  0  0  0  0  0  0  0
    6.1794   -7.6077   16.8943 Cl  0  0  0  0  0  0  0  0  0  0  0  0
    4.6494   -9.3243   18.7568 He  0  0  0  0  0  0  0  0  0  0  0  0
   10.5994   -4.5228   18.7803 He  0  0  0  0  0  0  0  0  0  0  0  0
   10.4825   -0.6712   26.6055 He  0  0  0  0  0  0  0  0  0  0  0  0
   11.7035   -2.2365   17.9664 He  0  0  0  0  0  0  0  0  0  0  0  0
    5.9619   -8.2688   17.6496 He  0  0  0  0  0  0  0  0  0  0  0  0
    8.4615   -6.1256   19.2356 He  0  0  0  0  0  0  0  0  0  0  0  0
    0.7393  -11.8285   19.2525 He  0  0  0  0  0  0  0  0  0  0  0  0
  1  2  1  0
  1  3  2  0
  1  6  3  0
  1 11  2  0
  1 15  4  0
  1 19  1  0
  1 25  4  0
  2  9  1  0
  2 10  4  0
  2 11  1  0
  2 18  4  0
  2 22  3  0
  2 27  3  0
  3  6  4  0
  3 14  4  0
  3 15  3  0
  3 19  2  0
  3 22  1  0
  3 26  3  0
  3 27  2  0
  4  7  4  0
  4  8  4  0
  4 16  3  0
  4 21  4  0
  4 26  4  0
  4 27  3  0
  5  9  1  0
  5 12  1  0
  5 20  2  0
  6 16  1  0
  6 23  1  0
  7  8  3  0
  7 10  2  0
  7 18  4  0
  7 19  3  0
  7 20  2  0
  7 22  1  0
  7 27  1  0
  8 10  4  0
  8 14  1  0
  8 20  4  0
  8 23  2  0
  8 27  3  0
  9 11  2  0
  9 14  4  0
  9 16  4  0
  9 17  3  0
  9 25  3  0
 10 15  1  0
 10 20  1  0
 10 22  2  0
 10 23  4  0
 11 20  4  0
 12 13  4  0
 13 19  4  0
 13 27  1  0
 14 16  4  0
 14 23  2  0
 15 24  4  0
 15 25  1  0
 15 26  4  0
 15 27  4  0
 16 17  2  0
 16 22  3  0
 16 26  4  0
 16 27  3  0
 18 20  4  0
 19 27  2  0
 20 23  1  0
 21 24  1  0
 21 26  4  0
 22 26  1  0
 23 24  4  0
 23 27  1  0
 25 27  1  0
 26 27  2  0
M  END
$$$$

 Created by Python create_sdf_string function

 34 28  0  0  0  0  0  0  0  0999 V2000
    9.6453   -0.6621   24.6625 C   0  0  0  0  0  0  0  0  0  0  0  0
   10.4370   -1.6666   24.3594 O   0  0  0  0  0  0  0  0  0  0  0  0
    9.9177   -5.7164   18.7158 C   0  0  0  0  0  0  0  0  0  0  0  0
    2.8484  -10.5179   18.2946 C   0  0  0  0  0  0  0  0  0  0  0  0
    9.8835   -3.8778   16.7957 C   0  0  0  0  0  0  0  0  0  0  0  0
    6.5138   -7.3530   14.8713 C   0  0  0  0  0  0  0  0  0  0  0  0
    3.0451  -11.2844   19.4562 N   0  0  0  0  0  0  0  0  0  0  0  0
    5.1733   -9.1007   18.4044 C   0  0  0  0  0  0  0  0  0  0  0  0
   10.6082   -4.6165   18.8736 N   0  0  0  0  0  0  0  0  0  0  0  0
    3.7324   -9.6131   17.5338 C   0  0  0  0  0  0  0  0  0  0  0  0
    9.2428   -4.9856   16.5676 C   0  0  0  0  0  0  0  0  0  0  0  0
    5.5749   -8.9266   18.2407 C   0  0  0  0  0  0  0  0  0  0  0  0
    7.1120   -5.3985   15.6033 O   0  0  0  0  0  0  0  0  0  0  0  0
   10.7044   -3.5921   17.9912 C   0  0  0  0  0  0  0  0  0  0  0  0
    6.5867   -6.6752   18.7938 O   0  0  0  0  0  0  0  0  0  0  0  0
    5.6017   -9.9891   18.5706 O   0  0  0  0  0  0  0  0  0  0  0  0
    1.4083   -9.8851   16.4532 C   0  0  0  0  0  0  0  0  0  0  0  0
   10.3818   -0.5782   26.6720 O   0  0  0  0  0  0  0  0  0  0  0  0
    7.7816   -7.0827   15.6142 C   0  0  0  0  0  0  0  0  0  0  0  0
   11.3360   -2.5152   18.1125 O   0  0  0  0  0  0  0  0  0  0  0  0
    6.0677   -8.5256   15.3509 C   0  0  0  0  0  0  0  0  0  0  0  0
    6.3483   -8.2061   17.9324 C   0  0  0  0  0  0  0  0  0  0  0  0
    8.6683   -6.5111   18.0799 C   0  0  0  0  0  0  0  0  0  0  0  0
    2.0147  -11.9284   20.0235 C   0  0  0  0  0  0  0  0  0  0  0  0
    8.8168    0.1945   25.4536 C   0  0  0  0  0  0  0  0  0  0  0  0
    8.6606   -5.8378   16.6040 C   0  0  0  0  0  0  0  0  0  0  0  0
    0.6265  -11.2361   18.3295 C   0  0  0  0  0  0  0  0  0  0  0  0
    9.3490   -6.6137   18.5433 C   0  0  0  0  0  0  0  0  0  0  0  0
    3.4438   -8.9764   16.3682 C   0  0  0  0  0  0  0  0  0  0  0  0
    0.8046  -11.8409   19.4059 N   0  0  0  0  0  0  0  0  0  0  0  0
    2.3413   -9.1950   15.8167 C   0  0  0  0  0  0  0  0  0  0  0  0
    7.4594   -8.7050   17.2004 C   0  0  0  0  0  0  0  0  0  0  0  0
    1.6236  -10.5341   17.6753 C   0  0  0  0  0  0  0  0  0  0  0  0
    7.0345   -7.7480   16.8681 C   0  0  0  0  0  0  0  0  0  0  0  0
  1  2  1  0
  1 18  2  0
  1 25  1  0
  3  9  1  0
  3 28  1  0
  4  7  4  0
  4 10  4  0
  4 33  4  0
  5 11  1  0
  5 14  1  0
  6 19  1  0
  6 21  1  0
  7 24  4  0
  8 12  1  0
  9 14  1  0
 10 29  4  0
 11 26  1  0
 12 22  1  0
 14 20  2  0
 17 31  4  0
 17 33  4  0
 19 26  1  0
 23 28  1  0
 24 30  4  0
 27 30  4  0
 27 33  4  0
 29 31  4  0
 32 34  1  0
M  END
$$$$

 Created by Python create_sdf_string function

 34 46  0  0  0  0  0  0  0  0999 V2000
    8.8137   -0.3337   24.8588 C   0  0  0  0  0  0  0  0  0  0  0  0
   10.4216   -1.5438   24.3426 O   0  0  0  0  0  0  0  0  0  0  0  0
    9.5782   -5.7718   18.1751 C   0  0  0  0  0  0  0  0  0  0  0  0
    3.1178  -10.8809   18.4868 C   0  0  0  0  0  0  0  0  0  0  0  0
    9.7295   -3.1858   17.2467 C   0  0  0  0  0  0  0  0  0  0  0  0
    6.8391   -7.9470   15.0517 C   0  0  0  0  0  0  0  0  0  0  0  0
    9.6558   -4.7485   16.3823 C   0  0  0  0  0  0  0  0  0  0  0  0
    6.7044   -5.4760   15.9120 O   0  0  0  0  0  0  0  0  0  0  0  0
   10.7110   -3.5147   18.3934 C   0  0  0  0  0  0  0  0  0  0  0  0
    6.3584   -6.0257   18.9702 O   0  0  0  0  0  0  0  0  0  0  0  0
    5.5927   -9.8871   19.0185 O   0  0  0  0  0  0  0  0  0  0  0  0
   10.0700   -0.6446   26.6629 C   0  0  0  0  0  0  0  0  0  0  0  0
    7.9145   -6.6217   15.4439 C   0  0  0  0  0  0  0  0  0  0  0  0
    5.5703   -8.5546   15.0126 C   0  0  0  0  0  0  0  0  0  0  0  0
    1.8195  -11.9466   21.0959 C   0  0  0  0  0  0  0  0  0  0  0  0
    8.6062    0.1226   25.6747 S   0  0  0  0  0  0  0  0  0  0  0  0
    9.0624   -6.3633   15.3493 S   0  0  0  0  0  0  0  0  0  0  0  0
    0.8565  -11.3365   18.6331 C   0  0  0  0  0  0  0  0  0  0  0  0
    3.5468   -8.5105   16.4876 C   0  0  0  0  0  0  0  0  0  0  0  0
    1.1520  -12.1115   19.4226 N   0  0  0  0  0  0  0  0  0  0  0  0
    2.0593   -8.9773   15.8542 C   0  0  0  0  0  0  0  0  0  0  0  0
    8.0702   -8.5207   17.0863 C   0  0  0  0  0  0  0  0  0  0  0  0
    1.8723  -11.0087   16.7192 C   0  0  0  0  0  0  0  0  0  0  0  0
    2.8046  -10.3367   19.6868 He  0  0  0  0  0  0  0  0  0  0  0  0
    5.5291   -9.2387   18.0101 He  0  0  0  0  0  0  0  0  0  0  0  0
   10.9973   -4.7628   19.2948 He  0  0  0  0  0  0  0  0  0  0  0  0
    3.7091   -9.9390   18.5431 He  0  0  0  0  0  0  0  0  0  0  0  0
    5.0575   -7.6734   17.4296 He  0  0  0  0  0  0  0  0  0  0  0  0
    0.9408  -10.6967   16.6485 He  0  0  0  0  0  0  0  0  0  0  0  0
   11.8186   -2.0830   18.0870 He  0  0  0  0  0  0  0  0  0  0  0  0
    5.1400   -7.1972   17.1640 He  0  0  0  0  0  0  0  0  0  0  0  0
    8.3311   -7.4654   17.1607 He  0  0  0  0  0  0  0  0  0  0  0  0
    9.1002   -6.6921   18.4732 He  0  0  0  0  0  0  0  0  0  0  0  0
    6.4593   -7.2589   16.9264 He  0  0  0  0  0  0  0  0  0  0  0  0
  1  2  3  0
  1 12  2  0
  1 21  1  0
  2  6  3  0
  2 14  1  0
  3  8  1  0
  3 11  3  0
  3 12  2  0
  3 19  2  0
  4 15  1  0
  4 17  3  0
  4 21  1  0
  4 23  4  0
  5  7  1  0
  5  9  1  0
  5 19  3  0
  5 23  1  0
  6 11  4  0
  6 13  4  0
  6 14  1  0
  6 21  3  0
  7 17  3  0
  7 18  3  0
  7 19  3  0
  8 11  3  0
  8 17  2  0
  8 18  3  0
  8 21  2  0
  9 17  3  0
 10 11  3  0
 11 12  2  0
 11 16  4  0
 11 17  1  0
 11 21  2  0
 12 15  3  0
 12 17  4  0
 12 21  2  0
 13 17  4  0
 15 17  2  0
 15 19  1  0
 15 20  3  0
 17 21  3  0
 17 22  1  0
 18 22  4  0
 18 23  4  0
 19 21  4  0
M  END
$$$$

 Created by Python create_sdf_string function

 34 32  0  0  0  0  0  0  0  0999 V2000
    9.3550   -0.6571   24.9557 C   0  0  0  0  0  0  0  0  0  0  0  0
    9.9514   -1.4143   24.2053 O   0  0  0  0  0  0  0  0  0  0  0  0
    9.8495   -5.7267   18.4575 C   0  0  0  0  0  0  0  0  0  0  0  0
    2.7202  -10.5861   18.4622 C   0  0  0  0  0  0  0  0  0  0  0  0
    9.9975   -3.6991   16.8811 C   0  0  0  0  0  0  0  0  0  0  0  0
    6.7342   -7.9647   15.1157 C   0  0  0  0  0  0  0  0  0  0  0  0
    2.9966  -11.2635   19.6555 N   0  0  0  0  0  0  0  0  0  0  0  0
    5.5546   -8.7746   17.4093 C   0  0  0  0  0  0  0  0  0  0  0  0
   10.6222   -4.6141   18.9884 C   0  0  0  0  0  0  0  0  0  0  0  0
    3.6036   -9.6628   17.7388 C   0  0  0  0  0  0  0  0  0  0  0  0
    9.5800   -4.8546   16.4475 C   0  0  0  0  0  0  0  0  0  0  0  0
    5.2902   -8.2105   17.6740 C   0  0  0  0  0  0  0  0  0  0  0  0
    7.1563   -5.4558   15.6983 O   0  0  0  0  0  0  0  0  0  0  0  0
   10.7307   -3.4720   18.1492 C   0  0  0  0  0  0  0  0  0  0  0  0
    6.3816   -6.4559   18.7028 O   0  0  0  0  0  0  0  0  0  0  0  0
    5.5229   -9.4948   19.0021 O   0  0  0  0  0  0  0  0  0  0  0  0
    1.2333  -10.0791   16.6396 N   0  0  0  0  0  0  0  0  0  0  0  0
   10.0364   -0.6556   26.6373 C   0  0  0  0  0  0  0  0  0  0  0  0
    8.1721   -6.9729   15.4399 C   0  0  0  0  0  0  0  0  0  0  0  0
   11.2881   -2.4192   18.3843 O   0  0  0  0  0  0  0  0  0  0  0  0
    5.6285   -8.4418   15.3275 C   0  0  0  0  0  0  0  0  0  0  0  0
    5.6962   -7.5050   17.5401 C   0  0  0  0  0  0  0  0  0  0  0  0
    8.4477   -7.2180   17.3540 C   0  0  0  0  0  0  0  0  0  0  0  0
    1.9466  -11.9182   20.2689 C   0  0  0  0  0  0  0  0  0  0  0  0
    8.3030    0.2099   25.3924 C   0  0  0  0  0  0  0  0  0  0  0  0
    8.5442   -5.7870   16.0695 C   0  0  0  0  0  0  0  0  0  0  0  0
    0.6541  -11.5182   18.4471 C   0  0  0  0  0  0  0  0  0  0  0  0
    9.3009   -6.5544   18.2102 C   0  0  0  0  0  0  0  0  0  0  0  0
    3.2505   -9.0626   16.6485 C   0  0  0  0  0  0  0  0  0  0  0  0
    0.8138  -11.9829   19.6440 N   0  0  0  0  0  0  0  0  0  0  0  0
    2.0877   -9.2590   16.0575 C   0  0  0  0  0  0  0  0  0  0  0  0
    8.1160   -8.4872   17.1571 C   0  0  0  0  0  0  0  0  0  0  0  0
    1.5358  -10.7112   17.8465 C   0  0  0  0  0  0  0  0  0  0  0  0
    6.8279   -7.8099   17.3459 C   0  0  0  0  0  0  0  0  0  0  0  0
  1  2  1  0
  1 18  2  0
  1 25  1  0
  3  9  1  0
  3 28  1  0
  4  7  4  0
  4 10  4  0
  4 33  4  0
  5 11  1  0
  5 14  1  0
  6 19  1  0
  6 21  1  0
  7 24  4  0
  8 12  1  0
  8 34  1  0
  9 14  1  0
 10 29  4  0
 11 26  1  0
 12 22  1  0
 13 26  2  0
 14 20  2  0
 15 22  2  0
 17 31  4  0
 17 33  4  0
 19 26  1  0
 23 28  1  0
 23 32  1  0
 24 30  4  0
 27 30  4  0
 27 33  4  0
 29 31  4  0
 32 34  1  0
M  END
$$$$

 Created by Python create_sdf_string function

 34 94  0  0  0  0  0  0  0  0999 V2000
    9.6353   -1.3163   24.4216 O   0  0  0  0  0  0  0  0  0  0  0  0
    9.8494   -5.9663   18.6234 C   0  0  0  0  0  0  0  0  0  0  0  0
    3.1363  -10.2877   18.4019 C   0  0  0  0  0  0  0  0  0  0  0  0
   10.1189   -3.6466   17.2219 F   0  0  0  0  0  0  0  0  0  0  0  0
    7.1719   -7.7602   15.0421 C   0  0  0  0  0  0  0  0  0  0  0  0
    2.9823  -11.2958   18.9119 N   0  0  0  0  0  0  0  0  0  0  0  0
    6.2062   -8.1823   16.8349 O   0  0  0  0  0  0  0  0  0  0  0  0
   10.8366   -4.4515   19.2365 C   0  0  0  0  0  0  0  0  0  0  0  0
    4.3135   -9.3348   18.0681 C   0  0  0  0  0  0  0  0  0  0  0  0
    6.5091   -7.8147   15.9138 O   0  0  0  0  0  0  0  0  0  0  0  0
    7.3565   -5.3082   15.2380 O   0  0  0  0  0  0  0  0  0  0  0  0
   10.8228   -3.2168   18.1298 C   0  0  0  0  0  0  0  0  0  0  0  0
    6.9621   -6.2359   18.9732 C   0  0  0  0  0  0  0  0  0  0  0  0
    5.3282   -9.4453   19.0067 O   0  0  0  0  0  0  0  0  0  0  0  0
    1.2483  -10.1566   16.7175 N   0  0  0  0  0  0  0  0  0  0  0  0
    9.7008   -0.5959   26.8321 C   0  0  0  0  0  0  0  0  0  0  0  0
    8.4769   -7.1357   15.6346 C   0  0  0  0  0  0  0  0  0  0  0  0
   11.3482   -2.1207   18.0604 O   0  0  0  0  0  0  0  0  0  0  0  0
    5.4709   -8.5933   15.1827 C   0  0  0  0  0  0  0  0  0  0  0  0
    5.5447   -6.1837   17.2528 I   0  0  0  0  0  0  0  0  0  0  0  0
    1.6465  -11.9439   19.8438 C   0  0  0  0  0  0  0  0  0  0  0  0
    8.2076    0.5351   25.1824 C   0  0  0  0  0  0  0  0  0  0  0  0
    9.4134   -3.8758   17.3124 F   0  0  0  0  0  0  0  0  0  0  0  0
    0.6700  -11.4288   18.4020 C   0  0  0  0  0  0  0  0  0  0  0  0
    9.3271   -6.2472   18.5676 C   0  0  0  0  0  0  0  0  0  0  0  0
    3.6101   -9.2033   16.5988 C   0  0  0  0  0  0  0  0  0  0  0  0
    0.6152  -11.5519   20.1873 N   0  0  0  0  0  0  0  0  0  0  0  0
    1.9192   -9.5764   15.8872 C   0  0  0  0  0  0  0  0  0  0  0  0
    8.0329   -8.1795   17.0302 C   0  0  0  0  0  0  0  0  0  0  0  0
    1.5042  -10.2679   18.1337 C   0  0  0  0  0  0  0  0  0  0  0  0
    9.3625   -0.6614   25.3548 He  0  0  0  0  0  0  0  0  0  0  0  0
    9.6289   -4.4320   16.3206 He  0  0  0  0  0  0  0  0  0  0  0  0
    7.5683   -5.6975   15.0674 He  0  0  0  0  0  0  0  0  0  0  0  0
    6.9992   -8.0392   16.7649 He  0  0  0  0  0  0  0  0  0  0  0  0
  1 10  3  0
  1 20  3  0
  2  7  2  0
  2  8  1  0
  2 13  2  0
  2 20  2  0
  2 25  1  0
  2 26  1  0
  2 27  1  0
  3  6  4  0
  3  9  4  0
  3 11  2  0
  3 14  2  0
  3 19  3  0
  3 23  4  0
  4  6  2  0
  4 15  4  0
  4 23  3  0
  5  9  3  0
  5 10  3  0
  5 17  1  0
  5 19  1  0
  5 20  1  0
  5 21  2  0
  5 26  2  0
  5 27  1  0
  6  7  4  0
  6 10  3  0
  6 12  1  0
  6 20  1  0
  6 23  4  0
  6 24  1  0
  7  8  1  0
  7 10  4  0
  7 14  4  0
  7 19  2  0
  7 21  3  0
  7 25  2  0
  7 26  1  0
  7 28  1  0
  8 12  1  0
  8 16  1  0
  8 28  4  0
  9 23  1  0
  9 24  1  0
  9 26  4  0
  9 29  3  0
 10 11  2  0
 10 14  4  0
 10 15  2  0
 10 16  3  0
 10 17  4  0
 10 18  3  0
 10 22  1  0
 11 20  3  0
 11 27  1  0
 11 29  2  0
 12 13  3  0
 12 18  2  0
 12 20  4  0
 12 21  2  0
 13 16  3  0
 13 20  4  0
 13 22  2  0
 13 26  2  0
 13 27  4  0
 14 21  1  0
 15 23  4  0
 15 25  4  0
 15 28  4  0
 15 30  4  0
 16 18  2  0
 16 20  4  0
 17 21  4  0
 17 22  4  0
 18 19  4  0
 18 22  2  0
 18 23  3  0
 18 24  2  0
 20 21  1  0
 20 22  1  0
 21 23  1  0
 21 27  2  0
 21 28  2  0
 21 29  4  0
 23 26  2  0
 23 27  2  0
 23 28  3  0
 23 29  4  0
 23 30  4  0
 24 30  1  0
 26 28  4  0
 28 29  2  0
 28 30  2  0
M  END
$$$$

 Created by Python create_sdf_string function

 34 32  0  0  0  0  0  0  0  0999 V2000
    9.2450   -0.5665   25.4253 C   0  0  0  0  0  0  0  0  0  0  0  0
    9.5789   -1.3774   24.3290 O   0  0  0  0  0  0  0  0  0  0  0  0
   10.0992   -5.7232   18.8231 C   0  0  0  0  0  0  0  0  0  0  0  0
    2.8927  -10.5526   18.3674 C   0  0  0  0  0  0  0  0  0  0  0  0
   10.0314   -3.7821   16.9768 C   0  0  0  0  0  0  0  0  0  0  0  0
    7.1229   -7.8344   14.9734 C   0  0  0  0  0  0  0  0  0  0  0  0
    3.0958  -11.2304   19.5126 N   0  0  0  0  0  0  0  0  0  0  0  0
    5.5021   -8.4784   16.8046 C   0  0  0  0  0  0  0  0  0  0  0  0
   10.7794   -4.3725   19.1269 C   0  0  0  0  0  0  0  0  0  0  0  0
    3.9353   -9.7092   17.7429 C   0  0  0  0  0  0  0  0  0  0  0  0
    9.4849   -4.5209   16.4506 C   0  0  0  0  0  0  0  0  0  0  0  0
    6.3197   -8.2213   16.4219 C   0  0  0  0  0  0  0  0  0  0  0  0
    7.3292   -5.2196   15.3712 O   0  0  0  0  0  0  0  0  0  0  0  0
   10.7994   -3.3525   18.1647 C   0  0  0  0  0  0  0  0  0  0  0  0
    6.8693   -6.5485   18.5151 C   0  0  0  0  0  0  0  0  0  0  0  0
    5.1540   -9.4117   18.6536 O   0  0  0  0  0  0  0  0  0  0  0  0
    1.3158   -9.9141   16.6480 N   0  0  0  0  0  0  0  0  0  0  0  0
    9.7070   -0.6883   26.6837 O   0  0  0  0  0  0  0  0  0  0  0  0
    8.4114   -7.2458   15.4143 C   0  0  0  0  0  0  0  0  0  0  0  0
   11.3149   -2.2712   18.2270 O   0  0  0  0  0  0  0  0  0  0  0  0
    5.4058   -8.5472   15.4007 C   0  0  0  0  0  0  0  0  0  0  0  0
    6.2388   -6.8858   17.1097 C   0  0  0  0  0  0  0  0  0  0  0  0
    7.9870   -5.9374   15.7988 C   0  0  0  0  0  0  0  0  0  0  0  0
    2.0242  -11.8336   20.0592 C   0  0  0  0  0  0  0  0  0  0  0  0
    8.2210    0.5685   25.1385 C   0  0  0  0  0  0  0  0  0  0  0  0
    9.3394   -4.8498   17.1186 C   0  0  0  0  0  0  0  0  0  0  0  0
    0.5804  -11.1222   18.6228 C   0  0  0  0  0  0  0  0  0  0  0  0
    9.2332   -6.1273   18.3035 C   0  0  0  0  0  0  0  0  0  0  0  0
    3.6384   -9.2343   16.6057 C   0  0  0  0  0  0  0  0  0  0  0  0
    0.8017  -11.7691   19.6863 N   0  0  0  0  0  0  0  0  0  0  0  0
    2.3510   -9.2464   16.0056 C   0  0  0  0  0  0  0  0  0  0  0  0
    8.2263   -8.4025   17.2691 C   0  0  0  0  0  0  0  0  0  0  0  0
    1.5948  -10.5399   17.8306 C   0  0  0  0  0  0  0  0  0  0  0  0
    7.0554   -7.6815   17.3039 C   0  0  0  0  0  0  0  0  0  0  0  0
  1  2  1  0
  1 18  2  0
  1 25  1  0
  3  9  1  0
  3 28  1  0
  4  7  4  0
  4 10  4  0
  4 33  4  0
  5 11  1  0
  5 14  1  0
  6 19  1  0
  6 21  1  0
  7 24  4  0
  8 29  1  0
  9 14  1  0
 10 16  1  0
 10 29  4  0
 11 26  1  0
 12 21  1  0
 12 34  1  0
 13 23  1  0
 14 20  2  0
 15 34  1  0
 17 31  4  0
 17 33  4  0
 19 23  1  0
 24 30  4  0
 26 28  1  0
 27 30  4  0
 27 33  4  0
 29 31  4  0
 32 34  1  0
M  END
$$$$

 Created by Python create_sdf_string function

 34 53  0  0  0  0  0  0  0  0999 V2000
    9.1896   -0.7478   25.0958 C   0  0  0  0  0  0  0  0  0  0  0  0
   10.3431   -5.4869   18.8933 C   0  0  0  0  0  0  0  0  0  0  0  0
    3.2592   -9.8895   18.4593 Br  0  0  0  0  0  0  0  0  0  0  0  0
    9.7266   -3.7871   17.0918 C   0  0  0  0  0  0  0  0  0  0  0  0
    7.4395   -7.5992   14.4565 C   0  0  0  0  0  0  0  0  0  0  0  0
    9.0275   -4.6244   16.0116 C   0  0  0  0  0  0  0  0  0  0  0  0
    8.1547   -5.5742   15.5642 O   0  0  0  0  0  0  0  0  0  0  0  0
    6.4629   -6.4925   18.3496 C   0  0  0  0  0  0  0  0  0  0  0  0
    5.4731   -9.6153   19.1227 O   0  0  0  0  0  0  0  0  0  0  0  0
    0.9453   -9.1102   16.4766 N   0  0  0  0  0  0  0  0  0  0  0  0
    9.4559   -0.6060   26.8483 O   0  0  0  0  0  0  0  0  0  0  0  0
    8.5536   -6.6733   15.6016 C   0  0  0  0  0  0  0  0  0  0  0  0
   11.4735   -2.5495   17.9556 S   0  0  0  0  0  0  0  0  0  0  0  0
    5.6385   -8.1865   15.9313 C   0  0  0  0  0  0  0  0  0  0  0  0
    6.4696   -7.5552   17.5740 F   0  0  0  0  0  0  0  0  0  0  0  0
    1.5017  -11.7666   20.1165 C   0  0  0  0  0  0  0  0  0  0  0  0
    7.8725    0.5913   24.9733 C   0  0  0  0  0  0  0  0  0  0  0  0
    9.0283   -5.4606   17.2273 N   0  0  0  0  0  0  0  0  0  0  0  0
    0.4441  -10.4012   18.6876 C   0  0  0  0  0  0  0  0  0  0  0  0
    8.8610   -6.2499   18.8209 C   0  0  0  0  0  0  0  0  0  0  0  0
    4.0087   -9.0753   16.4467 C   0  0  0  0  0  0  0  0  0  0  0  0
    0.7734  -11.7352   19.6994 S   0  0  0  0  0  0  0  0  0  0  0  0
    1.1731   -9.5815   16.3676 C   0  0  0  0  0  0  0  0  0  0  0  0
    8.7226   -8.4460   17.1014 C   0  0  0  0  0  0  0  0  0  0  0  0
    1.2664  -10.2804   17.5791 C   0  0  0  0  0  0  0  0  0  0  0  0
    9.6603   -1.1286   24.4888 He  0  0  0  0  0  0  0  0  0  0  0  0
    3.6291  -11.5541   19.2037 He  0  0  0  0  0  0  0  0  0  0  0  0
    4.6230   -8.4428   16.4096 He  0  0  0  0  0  0  0  0  0  0  0  0
   11.1133   -5.0550   19.3290 He  0  0  0  0  0  0  0  0  0  0  0  0
    3.5504  -10.3930   17.4249 He  0  0  0  0  0  0  0  0  0  0  0  0
    7.0428   -8.5104   15.8282 He  0  0  0  0  0  0  0  0  0  0  0  0
   10.8016   -3.2474   17.9920 He  0  0  0  0  0  0  0  0  0  0  0  0
    8.1056   -5.0393   14.0726 He  0  0  0  0  0  0  0  0  0  0  0  0
    8.1988   -8.2538   17.2448 He  0  0  0  0  0  0  0  0  0  0  0  0
  1  2  2  0
  1 11  2  0
  1 17  1  0
  1 18  3  0
  1 21  2  0
  2 15  2  0
  2 20  1  0
  3 15  1  0
  3 25  4  0
  4  9  3  0
  4 14  2  0
  4 16  1  0
  5  7  1  0
  5 14  1  0
  6  7  2  0
  6 15  4  0
  6 22  4  0
  7 13  1  0
  7 14  4  0
  7 15  4  0
  7 21  1  0
  7 24  1  0
  7 25  3  0
  8 12  1  0
  8 15  2  0
  8 17  2  0
  9 17  2  0
  9 21  2  0
 10 14  4  0
 10 23  4  0
 10 25  4  0
 11 15  3  0
 11 21  1  0
 11 23  4  0
 12 15  1  0
 12 23  1  0
 13 15  3  0
 13 17  2  0
 13 18  1  0
 13 24  1  0
 14 17  2  0
 15 16  4  0
 15 24  1  0
 16 22  4  0
 17 22  1  0
 18 19  3  0
 18 21  2  0
 18 22  3  0
 18 25  3  0
 19 20  2  0
 19 23  3  0
 19 25  4  0
 20 24  2  0
M  END
$$$$

 Created by Python create_sdf_string function

 34 33  0  0  0  0  0  0  0  0999 V2000
    9.1096   -0.5152   25.4129 C   0  0  0  0  0  0  0  0  0  0  0  0
    9.5379   -1.2307   24.2614 O   0  0  0  0  0  0  0  0  0  0  0  0
   10.1969   -5.4850   19.0358 C   0  0  0  0  0  0  0  0  0  0  0  0
    2.7708  -10.4970   18.2615 C   0  0  0  0  0  0  0  0  0  0  0  0
    9.9139   -3.9158   16.9953 C   0  0  0  0  0  0  0  0  0  0  0  0
    7.2385   -7.7524   14.9773 C   0  0  0  0  0  0  0  0  0  0  0  0
    2.9946  -11.3301   19.3464 C   0  0  0  0  0  0  0  0  0  0  0  0
    4.9478   -8.4783   16.5899 N   0  0  0  0  0  0  0  0  0  0  0  0
   10.8377   -4.6103   19.3851 C   0  0  0  0  0  0  0  0  0  0  0  0
    3.7746   -9.7547   17.6668 C   0  0  0  0  0  0  0  0  0  0  0  0
    9.0602   -4.7085   16.3899 C   0  0  0  0  0  0  0  0  0  0  0  0
    6.8384   -8.8325   15.9848 C   0  0  0  0  0  0  0  0  0  0  0  0
    8.0163   -4.9503   15.6671 O   0  0  0  0  0  0  0  0  0  0  0  0
   10.7236   -3.5836   17.9287 C   0  0  0  0  0  0  0  0  0  0  0  0
    6.4182   -6.9233   18.2591 C   0  0  0  0  0  0  0  0  0  0  0  0
    4.9299   -9.7366   18.5126 O   0  0  0  0  0  0  0  0  0  0  0  0
    1.3341   -9.5758   16.6611 N   0  0  0  0  0  0  0  0  0  0  0  0
    9.4534   -0.7366   26.5684 O   0  0  0  0  0  0  0  0  0  0  0  0
    8.3709   -6.9062   15.9859 C   0  0  0  0  0  0  0  0  0  0  0  0
   11.2977   -2.7024   18.1862 O   0  0  0  0  0  0  0  0  0  0  0  0
    5.8286   -8.2991   15.7306 C   0  0  0  0  0  0  0  0  0  0  0  0
    6.5592   -7.7244   17.7269 C   0  0  0  0  0  0  0  0  0  0  0  0
    8.0189   -5.8357   15.2754 O   0  0  0  0  0  0  0  0  0  0  0  0
    1.9745  -11.8842   19.9266 C   0  0  0  0  0  0  0  0  0  0  0  0
    8.1180    0.5789   25.0911 C   0  0  0  0  0  0  0  0  0  0  0  0
    9.2214   -5.7929   17.3517 N   0  0  0  0  0  0  0  0  0  0  0  0
    0.5347  -10.8484   18.4626 C   0  0  0  0  0  0  0  0  0  0  0  0
    9.5325   -6.2474   18.4142 C   0  0  0  0  0  0  0  0  0  0  0  0
    3.7126   -9.1493   16.7127 C   0  0  0  0  0  0  0  0  0  0  0  0
    0.7371  -11.5520   19.5887 N   0  0  0  0  0  0  0  0  0  0  0  0
    2.3355   -9.0154   16.0638 C   0  0  0  0  0  0  0  0  0  0  0  0
    8.6778   -8.2515   17.2071 C   0  0  0  0  0  0  0  0  0  0  0  0
    1.5121  -10.3056   17.7945 C   0  0  0  0  0  0  0  0  0  0  0  0
    7.8525   -8.1100   17.2372 C   0  0  0  0  0  0  0  0  0  0  0  0
  1  2  1  0
  1 18  2  0
  1 25  1  0
  3  9  4  0
  3 28  4  0
  4  7  4  0
  4 10  4  0
  4 33  4  0
  5 11  4  0
  5 14  4  0
  6 19  1  0
  6 21  1  0
  7 24  4  0
  8 21  1  0
  8 29  1  0
 10 16  1  0
 10 29  4  0
 11 13  2  0
 11 26  4  0
 12 21  1  0
 12 34  1  0
 14 20  1  0
 15 22  1  0
 17 31  4  0
 17 33  4  0
 19 23  1  0
 22 34  1  0
 24 30  4  0
 26 28  4  0
 27 30  4  0
 27 33  4  0
 29 31  4  0
 32 34  1  0
M  END
$$$$

 Created by Python create_sdf_string function

 34 50  0  0  0  0  0  0  0  0999 V2000
    8.5458   -0.3040   25.7946 C   0  0  0  0  0  0  0  0  0  0  0  0
    9.5729   -0.9892   24.7649 O   0  0  0  0  0  0  0  0  0  0  0  0
   10.2419   -5.1436   18.9423 C   0  0  0  0  0  0  0  0  0  0  0  0
    2.6411  -10.2466   17.9027 C   0  0  0  0  0  0  0  0  0  0  0  0
    9.9387   -3.8942   16.9364 C   0  0  0  0  0  0  0  0  0  0  0  0
    7.0493   -8.0760   15.0643 C   0  0  0  0  0  0  0  0  0  0  0  0
    3.4970  -11.4493   19.1240 C   0  0  0  0  0  0  0  0  0  0  0  0
   10.9512   -4.7505   19.0957 C   0  0  0  0  0  0  0  0  0  0  0  0
    8.2823   -4.4746   16.3884 C   0  0  0  0  0  0  0  0  0  0  0  0
    8.3564   -4.6547   16.0315 O   0  0  0  0  0  0  0  0  0  0  0  0
   11.0388   -4.0181   17.4607 C   0  0  0  0  0  0  0  0  0  0  0  0
    6.5382   -6.9174   18.3722 C   0  0  0  0  0  0  0  0  0  0  0  0
    5.0244   -9.6121   18.2195 P   0  0  0  0  0  0  0  0  0  0  0  0
    1.2862  -10.1123   17.0480 N   0  0  0  0  0  0  0  0  0  0  0  0
    9.6684   -0.3385   26.8631 O   0  0  0  0  0  0  0  0  0  0  0  0
    8.7628   -6.9241   16.4084 C   0  0  0  0  0  0  0  0  0  0  0  0
   11.6400   -2.8390   18.8690 Cl  0  0  0  0  0  0  0  0  0  0  0  0
    5.6823   -8.3837   15.4117 Cl  0  0  0  0  0  0  0  0  0  0  0  0
    2.2329  -12.1591   19.7443 C   0  0  0  0  0  0  0  0  0  0  0  0
    7.9185    0.4999   25.4668 C   0  0  0  0  0  0  0  0  0  0  0  0
    9.9672   -5.8940   17.1177 I   0  0  0  0  0  0  0  0  0  0  0  0
    0.1813  -10.9890   18.9529 S   0  0  0  0  0  0  0  0  0  0  0  0
    9.8521   -6.3769   18.7458 C   0  0  0  0  0  0  0  0  0  0  0  0
    3.9043   -9.0467   16.7534 C   0  0  0  0  0  0  0  0  0  0  0  0
    8.1402   -8.2144   17.1417 C   0  0  0  0  0  0  0  0  0  0  0  0
    1.5089  -10.2173   17.8910 C   0  0  0  0  0  0  0  0  0  0  0  0
    5.4074   -8.7205   16.0801 He  0  0  0  0  0  0  0  0  0  0  0  0
    3.8915  -10.2173   17.8470 He  0  0  0  0  0  0  0  0  0  0  0  0
    7.7532   -8.1879   15.1809 He  0  0  0  0  0  0  0  0  0  0  0  0
    5.9810   -8.8322   17.8126 He  0  0  0  0  0  0  0  0  0  0  0  0
    9.2648   -5.8792   14.5860 He  0  0  0  0  0  0  0  0  0  0  0  0
    0.7897  -11.7923   19.4079 He  0  0  0  0  0  0  0  0  0  0  0  0
    2.3061   -9.5441   16.0223 He  0  0  0  0  0  0  0  0  0  0  0  0
    7.9544   -7.5311   15.3993 He  0  0  0  0  0  0  0  0  0  0  0  0
  1  2  1  0
  1 15  2  0
  1 20  4  0
  1 23  2  0
  2  6  3  0
  2 20  4  0
  3  5  3  0
  3  8  4  0
  3 21  3  0
  3 25  4  0
  4  9  4  0
  4 23  2  0
  4 24  1  0
  4 26  1  0
  5  8  4  0
  5  9  2  0
  5 11  4  0
  5 14  3  0
  5 19  3  0
  5 21  2  0
  6  8  1  0
  6 14  2  0
  6 16  1  0
  6 26  3  0
  7  8  4  0
  7 15  4  0
  7 19  4  0
  7 21  2  0
  7 24  3  0
  8 16  3  0
  9 10  2  0
  9 21  4  0
  9 22  1  0
 10 24  2  0
 10 25  1  0
 11 17  1  0
 12 18  4  0
 13 14  2  0
 14 21  3  0
 14 26  4  0
 15 21  2  0
 15 22  4  0
 16 20  4  0
 16 21  1  0
 20 24  2  0
 21 24  2  0
 21 25  3  0
 22 23  2  0
 22 26  4  0
 25 26  3  0
M  END
$$$$

 Created by Python create_sdf_string function

 34 35  0  0  0  0  0  0  0  0999 V2000
    8.9063   -0.3176   25.7612 C   0  0  0  0  0  0  0  0  0  0  0  0
    9.3768   -1.0839   24.5932 O   0  0  0  0  0  0  0  0  0  0  0  0
   10.4979   -5.4966   19.3557 C   0  0  0  0  0  0  0  0  0  0  0  0
    2.8830  -10.5733   18.2356 C   0  0  0  0  0  0  0  0  0  0  0  0
   10.0101   -4.0523   17.0870 C   0  0  0  0  0  0  0  0  0  0  0  0
    6.9936   -8.0232   15.0845 C   0  0  0  0  0  0  0  0  0  0  0  0
    3.1706  -11.5028   19.3064 C   0  0  0  0  0  0  0  0  0  0  0  0
    4.9944   -8.5861   16.1433 C   0  0  0  0  0  0  0  0  0  0  0  0
   10.9557   -4.4031   19.2100 C   0  0  0  0  0  0  0  0  0  0  0  0
    3.8156   -9.8210   17.6775 C   0  0  0  0  0  0  0  0  0  0  0  0
    9.1408   -4.6273   16.3239 C   0  0  0  0  0  0  0  0  0  0  0  0
    7.5993   -8.3746   15.4488 C   0  0  0  0  0  0  0  0  0  0  0  0
    8.1837   -4.3086   15.6343 O   0  0  0  0  0  0  0  0  0  0  0  0
   10.6986   -3.7053   17.9127 C   0  0  0  0  0  0  0  0  0  0  0  0
    6.5162   -7.2890   18.2386 C   0  0  0  0  0  0  0  0  0  0  0  0
    5.0694   -9.5567   18.2445 O   0  0  0  0  0  0  0  0  0  0  0  0
    1.3884   -9.7123   16.7004 N   0  0  0  0  0  0  0  0  0  0  0  0
    9.5379   -0.3374   26.9182 O   0  0  0  0  0  0  0  0  0  0  0  0
    8.7144   -6.8389   16.6085 C   0  0  0  0  0  0  0  0  0  0  0  0
   11.5377   -2.7336   18.3301 O   0  0  0  0  0  0  0  0  0  0  0  0
    5.5885   -8.4759   15.2969 C   0  0  0  0  0  0  0  0  0  0  0  0
    5.9263   -8.4900   17.4971 C   0  0  0  0  0  0  0  0  0  0  0  0
    8.8261   -6.5209   15.4127 C   0  0  0  0  0  0  0  0  0  0  0  0
    2.1092  -12.1597   19.9240 C   0  0  0  0  0  0  0  0  0  0  0  0
    7.7091    0.6159   25.4196 C   0  0  0  0  0  0  0  0  0  0  0  0
    9.4697   -5.9254   17.4209 C   0  0  0  0  0  0  0  0  0  0  0  0
    0.5544  -11.0295   18.5507 N   0  0  0  0  0  0  0  0  0  0  0  0
    9.8213   -6.2893   18.7041 C   0  0  0  0  0  0  0  0  0  0  0  0
    3.6962   -9.1863   16.5314 C   0  0  0  0  0  0  0  0  0  0  0  0
    0.8262  -11.8829   19.6384 C   0  0  0  0  0  0  0  0  0  0  0  0
    2.3988   -9.1698   15.9852 C   0  0  0  0  0  0  0  0  0  0  0  0
    8.1947   -8.2169   17.2712 C   0  0  0  0  0  0  0  0  0  0  0  0
    1.5854  -10.4577   17.8041 C   0  0  0  0  0  0  0  0  0  0  0  0
    7.6174   -7.8084   15.4658 C   0  0  0  0  0  0  0  0  0  0  0  0
  1  2  1  0
  1 18  2  0
  1 25  1  0
  3  9  4  0
  3 28  4  0
  4  7  4  0
  4 10  4  0
  4 33  4  0
  5 11  4  0
  5 14  4  0
  6 12  1  0
  6 21  1  0
  6 34  1  0
  7 24  4  0
  8 21  1  0
  8 22  1  0
  8 29  1  0
  9 14  4  0
 10 16  1  0
 10 29  4  0
 11 13  2  0
 11 26  4  0
 14 20  1  0
 15 22  1  0
 16 22  1  0
 17 31  4  0
 17 33  4  0
 19 23  1  0
 19 26  1  0
 19 32  1  0
 24 30  4  0
 26 28  4  0
 27 30  4  0
 27 33  4  0
 29 31  4  0
M  END
$$$$

 Created by Python create_sdf_string function

 34 91  0  0  0  0  0  0  0  0999 V2000
    9.5820   -1.0366   24.5854 O   0  0  0  0  0  0  0  0  0  0  0  0
   10.5027   -5.8547   19.3044 C   0  0  0  0  0  0  0  0  0  0  0  0
    2.1322  -10.6545   18.0312 C   0  0  0  0  0  0  0  0  0  0  0  0
    9.8483   -3.6103   16.9998 P   0  0  0  0  0  0  0  0  0  0  0  0
    7.4682   -8.6013   15.5927 C   0  0  0  0  0  0  0  0  0  0  0  0
    4.9375   -6.9506   16.9968 C   0  0  0  0  0  0  0  0  0  0  0  0
   11.0921   -4.4317   19.7239 S   0  0  0  0  0  0  0  0  0  0  0  0
    3.5235   -9.9953   17.5929 C   0  0  0  0  0  0  0  0  0  0  0  0
    9.5389   -5.1028   16.5072 C   0  0  0  0  0  0  0  0  0  0  0  0
    7.5538   -8.4439   15.8343 C   0  0  0  0  0  0  0  0  0  0  0  0
    8.1233   -4.2810   15.6471 Cl  0  0  0  0  0  0  0  0  0  0  0  0
   11.2674   -3.9031   17.4947 C   0  0  0  0  0  0  0  0  0  0  0  0
    6.5394   -6.9660   18.9051 F   0  0  0  0  0  0  0  0  0  0  0  0
    4.9977   -9.3529   18.2436 O   0  0  0  0  0  0  0  0  0  0  0  0
    1.1399  -10.1018   16.9102 N   0  0  0  0  0  0  0  0  0  0  0  0
    9.5171   -0.3104   27.3952 O   0  0  0  0  0  0  0  0  0  0  0  0
    8.6857   -6.2509   16.4950 C   0  0  0  0  0  0  0  0  0  0  0  0
   11.6583   -2.9255   17.8516 O   0  0  0  0  0  0  0  0  0  0  0  0
    5.3725   -8.6169   15.5647 C   0  0  0  0  0  0  0  0  0  0  0  0
    5.1655   -8.7009   17.6537 O   0  0  0  0  0  0  0  0  0  0  0  0
    2.3037  -11.8360   19.5217 C   0  0  0  0  0  0  0  0  0  0  0  0
    9.8844   -4.4362   16.0742 N   0  0  0  0  0  0  0  0  0  0  0  0
    1.0358  -10.7880   18.3909 N   0  0  0  0  0  0  0  0  0  0  0  0
    9.4626   -6.9428   18.7259 C   0  0  0  0  0  0  0  0  0  0  0  0
    3.8446   -9.0284   16.6406 C   0  0  0  0  0  0  0  0  0  0  0  0
    1.1683  -12.0425   19.2546 C   0  0  0  0  0  0  0  0  0  0  0  0
    2.1810   -9.3653   16.7321 C   0  0  0  0  0  0  0  0  0  0  0  0
    8.3702   -7.9731   17.3417 I   0  0  0  0  0  0  0  0  0  0  0  0
    1.9680  -10.3348   18.1138 C   0  0  0  0  0  0  0  0  0  0  0  0
    8.4455   -0.4222   25.4549 He  0  0  0  0  0  0  0  0  0  0  0  0
    3.4105  -11.2413   19.7717 He  0  0  0  0  0  0  0  0  0  0  0  0
    8.4114   -7.1103   14.2538 He  0  0  0  0  0  0  0  0  0  0  0  0
    7.9673    0.6957   25.4026 He  0  0  0  0  0  0  0  0  0  0  0  0
    7.3195   -7.2752   16.0668 He  0  0  0  0  0  0  0  0  0  0  0  0
  1  7  4  0
  1  9  3  0
  1 15  1  0
  1 24  3  0
  2  5  4  0
  2  7  4  0
  2  8  1  0
  2 11  1  0
  2 19  1  0
  2 24  4  0
  2 27  3  0
  3  6  2  0
  3  8  4  0
  3 13  4  0
  3 22  4  0
  3 23  1  0
  3 29  4  0
  4  6  4  0
  4  9  4  0
  4 10  4  0
  4 12  4  0
  4 19  2  0
  4 21  1  0
  4 22  4  0
  4 28  2  0
  5 10  1  0
  5 14  1  0
  5 19  1  0
  5 28  3  0
  6  7  3  0
  6  8  4  0
  6 13  2  0
  6 16  1  0
  6 17  4  0
  6 19  3  0
  6 20  1  0
  6 23  3  0
  6 24  1  0
  6 28  4  0
  6 29  1  0
  7 10  2  0
  7 12  2  0
  7 22  4  0
  7 29  2  0
  8  9  4  0
  8 11  3  0
  8 14  1  0
  8 20  3  0
  8 22  4  0
  8 25  4  0
  9 11  2  0
  9 12  1  0
  9 16  2  0
  9 19  1  0
 10 12  2  0
 10 13  4  0
 10 14  3  0
 10 15  1  0
 10 22  4  0
 10 25  3  0
 11 20  3  0
 11 23  1  0
 12 17  4  0
 12 18  1  0
 12 21  3  0
 13 17  2  0
 13 20  1  0
 13 22  2  0
 14 15  3  0
 15 20  3  0
 15 23  1  0
 15 27  4  0
 15 29  4  0
 16 20  3  0
 16 21  1  0
 17 19  4  0
 17 25  1  0
 17 28  1  0
 18 22  4  0
 19 22  4  0
 19 29  2  0
 20 24  1  0
 20 26  2  0
 20 28  4  0
 21 28  1  0
 22 28  1  0
 23 25  2  0
 23 26  1  0
 24 27  3  0
 25 27  4  0
 28 29  4  0
M  END
$$$$

 Created by Python create_sdf_string function

 34 34  0  0  0  0  0  0  0  0999 V2000
    8.8672   -0.3451   25.6493 C   0  0  0  0  0  0  0  0  0  0  0  0
    9.3754   -1.1068   24.4898 O   0  0  0  0  0  0  0  0  0  0  0  0
   10.2696   -5.7741   18.9323 C   0  0  0  0  0  0  0  0  0  0  0  0
    2.7988  -10.5962   18.4104 C   0  0  0  0  0  0  0  0  0  0  0  0
   10.1433   -4.0934   16.9698 C   0  0  0  0  0  0  0  0  0  0  0  0
    7.0569   -8.7462   15.5461 C   0  0  0  0  0  0  0  0  0  0  0  0
    3.2250  -11.4502   19.4427 N   0  0  0  0  0  0  0  0  0  0  0  0
    5.0418   -7.9911   16.6940 C   0  0  0  0  0  0  0  0  0  0  0  0
   11.1012   -4.5736   19.1831 N   0  0  0  0  0  0  0  0  0  0  0  0
    3.7301   -9.7181   17.7866 C   0  0  0  0  0  0  0  0  0  0  0  0
    9.2892   -5.0003   16.7071 C   0  0  0  0  0  0  0  0  0  0  0  0
    7.5080   -8.3315   15.7976 C   0  0  0  0  0  0  0  0  0  0  0  0
    8.2637   -4.4800   15.5804 O   0  0  0  0  0  0  0  0  0  0  0  0
   11.0384   -3.6711   18.0912 C   0  0  0  0  0  0  0  0  0  0  0  0
    6.4049   -7.2048   18.4226 O   0  0  0  0  0  0  0  0  0  0  0  0
    4.9700   -9.4754   18.3454 O   0  0  0  0  0  0  0  0  0  0  0  0
    1.2375   -9.8289   16.8748 N   0  0  0  0  0  0  0  0  0  0  0  0
    9.2757   -0.4672   26.8848 O   0  0  0  0  0  0  0  0  0  0  0  0
    8.4534   -6.7322   16.6798 C   0  0  0  0  0  0  0  0  0  0  0  0
   11.6779   -2.7381   17.9708 O   0  0  0  0  0  0  0  0  0  0  0  0
    5.6113   -8.7339   15.5118 C   0  0  0  0  0  0  0  0  0  0  0  0
    5.6870   -8.2162   17.4852 C   0  0  0  0  0  0  0  0  0  0  0  0
    8.1841   -7.6927   14.8738 C   0  0  0  0  0  0  0  0  0  0  0  0
    2.2531  -12.1432   20.0175 C   0  0  0  0  0  0  0  0  0  0  0  0
    7.7865    0.7099   25.2757 C   0  0  0  0  0  0  0  0  0  0  0  0
    9.4026   -5.0200   16.7994 C   0  0  0  0  0  0  0  0  0  0  0  0
    0.6620  -11.4282   18.5674 N   0  0  0  0  0  0  0  0  0  0  0  0
    9.7120   -6.6507   18.7569 C   0  0  0  0  0  0  0  0  0  0  0  0
    3.3787   -9.0245   16.7929 C   0  0  0  0  0  0  0  0  0  0  0  0
    1.0078  -12.1816   19.5297 C   0  0  0  0  0  0  0  0  0  0  0  0
    2.2063   -9.1181   16.1948 C   0  0  0  0  0  0  0  0  0  0  0  0
    8.5470   -7.8191   17.5695 C   0  0  0  0  0  0  0  0  0  0  0  0
    1.5576  -10.6070   17.9022 C   0  0  0  0  0  0  0  0  0  0  0  0
    7.1180   -7.1507   16.5710 C   0  0  0  0  0  0  0  0  0  0  0  0
  1  2  1  0
  1 18  2  0
  1 25  1  0
  3  9  4  0
  3 28  4  0
  4  7  4  0
  4 10  4  0
  4 33  4  0
  5 11  4  0
  5 14  4  0
  5 26  4  0
  6 12  1  0
  6 21  1  0
  7 24  4  0
  8 21  1  0
  8 22  1  0
  8 29  1  0
  9 14  4  0
 10 16  1  0
 10 29  4  0
 11 13  2  0
 11 26  4  0
 12 23  1  0
 14 20  1  0
 15 22  1  0
 16 22  1  0
 17 31  4  0
 17 33  4  0
 19 32  1  0
 19 34  1  0
 24 30  4  0
 27 30  4  0
 27 33  4  0
 29 31  4  0
M  END
$$$$

 Created by Python create_sdf_string function

 34 49  0  0  0  0  0  0  0  0999 V2000
    9.1497   -0.3858   25.8576 C   0  0  0  0  0  0  0  0  0  0  0  0
    8.8991   -1.4816   24.2176 Se  0  0  0  0  0  0  0  0  0  0  0  0
   10.3915   -5.3843   19.0687 C   0  0  0  0  0  0  0  0  0  0  0  0
    3.1304  -11.4358   18.8841 C   0  0  0  0  0  0  0  0  0  0  0  0
    9.8111   -4.2347   17.2665 C   0  0  0  0  0  0  0  0  0  0  0  0
    2.9762  -11.9020   19.0228 O   0  0  0  0  0  0  0  0  0  0  0  0
    5.5753   -7.1398   16.3200 O   0  0  0  0  0  0  0  0  0  0  0  0
    3.7563   -9.7069   17.8388 C   0  0  0  0  0  0  0  0  0  0  0  0
    9.2092   -5.0855   16.8931 C   0  0  0  0  0  0  0  0  0  0  0  0
   11.1638   -3.6867   18.4274 C   0  0  0  0  0  0  0  0  0  0  0  0
    6.2331   -7.3638   18.4979 O   0  0  0  0  0  0  0  0  0  0  0  0
    4.1696   -9.8038   18.6236 O   0  0  0  0  0  0  0  0  0  0  0  0
    0.9678  -10.1836   16.8750 F   0  0  0  0  0  0  0  0  0  0  0  0
    8.3204   -6.6251   16.7081 C   0  0  0  0  0  0  0  0  0  0  0  0
   12.5492   -3.0968   17.6966 O   0  0  0  0  0  0  0  0  0  0  0  0
    5.3051   -7.1954   16.7362 Se  0  0  0  0  0  0  0  0  0  0  0  0
    2.2763  -12.4795   20.0862 C   0  0  0  0  0  0  0  0  0  0  0  0
    0.3067  -11.4813   18.1855 C   0  0  0  0  0  0  0  0  0  0  0  0
    9.3274   -6.3522   18.6609 N   0  0  0  0  0  0  0  0  0  0  0  0
    3.1408   -9.0305   17.1519 C   0  0  0  0  0  0  0  0  0  0  0  0
    2.4211   -9.1327   16.3467 C   0  0  0  0  0  0  0  0  0  0  0  0
    8.5742   -7.7375   17.5353 C   0  0  0  0  0  0  0  0  0  0  0  0
    1.7094  -10.9769   17.3843 C   0  0  0  0  0  0  0  0  0  0  0  0
    6.9148   -7.2534   15.4317 F   0  0  0  0  0  0  0  0  0  0  0  0
    7.5023   -8.8565   15.2090 He  0  0  0  0  0  0  0  0  0  0  0  0
   11.0204   -4.3484   19.2831 He  0  0  0  0  0  0  0  0  0  0  0  0
    6.0932  -10.5754   16.9677 He  0  0  0  0  0  0  0  0  0  0  0  0
    8.5069   -4.5382   15.3994 He  0  0  0  0  0  0  0  0  0  0  0  0
    9.4867   -0.1860   27.2881 He  0  0  0  0  0  0  0  0  0  0  0  0
    5.7482   -8.9432   15.3022 He  0  0  0  0  0  0  0  0  0  0  0  0
    7.3874   -8.2168   14.7424 He  0  0  0  0  0  0  0  0  0  0  0  0
    7.8589    0.5047   25.5612 He  0  0  0  0  0  0  0  0  0  0  0  0
    8.6707   -5.9441   16.9699 He  0  0  0  0  0  0  0  0  0  0  0  0
    1.0811  -12.3589   19.0267 He  0  0  0  0  0  0  0  0  0  0  0  0
  1 12  3  0
  1 16  1  0
  1 24  2  0
  2  7  3  0
  2  9  4  0
  2 10  1  0
  2 16  2  0
  2 21  4  0
  3  7  2  0
  3 19  4  0
  4  6  4  0
  4  8  4  0
  4 16  2  0
  4 23  1  0
  5  9  2  0
  5 10  4  0
  5 15  2  0
  5 24  1  0
  6 13  4  0
  6 15  1  0
  6 16  2  0
  6 17  4  0
  7 10  4  0
  7 12  2  0
  7 16  1  0
  7 18  2  0
  7 23  3  0
  8 12  1  0
  8 17  4  0
  8 24  4  0
  9 16  3  0
  9 23  2  0
 10 15  1  0
 10 24  2  0
 12 14  4  0
 12 15  3  0
 12 16  1  0
 14 16  1  0
 14 22  1  0
 15 16  1  0
 16 19  1  0
 16 20  4  0
 16 21  2  0
 17 24  3  0
 18 24  2  0
 20 21  4  0
 20 24  2  0
 21 23  3  0
 22 23  2  0
M  END
$$$$

 Created by Python create_sdf_string function

 34 33  0  0  0  0  0  0  0  0999 V2000
    8.9204   -0.4383   25.6948 C   0  0  0  0  0  0  0  0  0  0  0  0
    9.2788   -1.3663   24.6229 C   0  0  0  0  0  0  0  0  0  0  0  0
   10.2483   -5.5846   19.3609 C   0  0  0  0  0  0  0  0  0  0  0  0
    2.8049  -10.8250   18.3443 C   0  0  0  0  0  0  0  0  0  0  0  0
   10.1002   -4.0665   17.1106 C   0  0  0  0  0  0  0  0  0  0  0  0
    7.3297   -8.9351   15.3048 C   0  0  0  0  0  0  0  0  0  0  0  0
    3.0542  -11.6798   19.3745 C   0  0  0  0  0  0  0  0  0  0  0  0
    5.5529   -7.7157   16.4515 C   0  0  0  0  0  0  0  0  0  0  0  0
   10.9773   -4.5432   19.2726 N   0  0  0  0  0  0  0  0  0  0  0  0
    3.7870   -9.9086   17.7983 C   0  0  0  0  0  0  0  0  0  0  0  0
    9.1716   -4.8518   16.6873 C   0  0  0  0  0  0  0  0  0  0  0  0
    6.2877  -10.0842   16.6820 C   0  0  0  0  0  0  0  0  0  0  0  0
    8.4232   -4.4766   15.6598 O   0  0  0  0  0  0  0  0  0  0  0  0
   10.9919   -3.8070   18.0819 C   0  0  0  0  0  0  0  0  0  0  0  0
    6.1440   -7.2958   18.2633 O   0  0  0  0  0  0  0  0  0  0  0  0
    4.9481   -9.9591   18.3999 O   0  0  0  0  0  0  0  0  0  0  0  0
    1.3206   -9.9592   16.7794 N   0  0  0  0  0  0  0  0  0  0  0  0
    9.5085   -0.4009   26.8899 O   0  0  0  0  0  0  0  0  0  0  0  0
    7.9941   -6.8651   16.6857 C   0  0  0  0  0  0  0  0  0  0  0  0
   11.8551   -2.7772   17.8738 O   0  0  0  0  0  0  0  0  0  0  0  0
    5.9328   -9.0282   15.5555 C   0  0  0  0  0  0  0  0  0  0  0  0
    5.9300   -7.5916   16.9831 C   0  0  0  0  0  0  0  0  0  0  0  0
    7.5594   -8.5824   15.4361 C   0  0  0  0  0  0  0  0  0  0  0  0
    2.0733  -12.4995   19.7722 C   0  0  0  0  0  0  0  0  0  0  0  0
    7.8299    0.5253   25.3874 O   0  0  0  0  0  0  0  0  0  0  0  0
    9.0149   -5.9150   17.3675 N   0  0  0  0  0  0  0  0  0  0  0  0
    0.6110  -11.6413   18.2220 C   0  0  0  0  0  0  0  0  0  0  0  0
    9.5887   -6.2966   18.6879 N   0  0  0  0  0  0  0  0  0  0  0  0
    3.2966   -9.1457   16.8712 C   0  0  0  0  0  0  0  0  0  0  0  0
    0.8888  -12.4519   19.2516 C   0  0  0  0  0  0  0  0  0  0  0  0
    2.2026   -9.0684   16.3253 C   0  0  0  0  0  0  0  0  0  0  0  0
    8.3419   -7.8890   17.4306 C   0  0  0  0  0  0  0  0  0  0  0  0
    1.5789  -10.7912   17.7863 C   0  0  0  0  0  0  0  0  0  0  0  0
    7.1659   -6.9885   15.7573 C   0  0  0  0  0  0  0  0  0  0  0  0
  1  2  1  0
  1 18  2  0
  1 25  1  0
  3  9  4  0
  3 28  4  0
  4  7  4  0
  4 10  4  0
  4 33  4  0
  5 11  4  0
  5 14  4  0
  6 21  1  0
  6 23  1  0
  7 24  4  0
  8 21  1  0
  8 22  1  0
  9 14  4  0
 10 16  1  0
 10 29  4  0
 11 13  2  0
 11 26  4  0
 12 21  1  0
 14 20  1  0
 15 22  1  0
 17 31  4  0
 17 33  4  0
 19 26  1  0
 19 32  1  0
 19 34  1  0
 24 30  4  0
 26 28  4  0
 27 30  4  0
 27 33  4  0
 29 31  4  0
M  END
$$$$

 Created by Python create_sdf_string function

 34 83  0  0  0  0  0  0  0  0999 V2000
    8.2963   -0.2489   25.1730 C   0  0  0  0  0  0  0  0  0  0  0  0
    8.9232   -1.1850   24.5139 C   0  0  0  0  0  0  0  0  0  0  0  0
   10.0821   -5.3077   18.9741 C   0  0  0  0  0  0  0  0  0  0  0  0
    2.5035  -10.8969   18.7676 C   0  0  0  0  0  0  0  0  0  0  0  0
    9.2586   -4.4476   17.1155 C   0  0  0  0  0  0  0  0  0  0  0  0
    7.3466   -9.1177   15.6903 C   0  0  0  0  0  0  0  0  0  0  0  0
    3.0955  -11.5805   19.1139 F   0  0  0  0  0  0  0  0  0  0  0  0
   11.1572   -4.8465   19.1888 B   0  0  0  0  0  0  0  0  0  0  0  0
    3.6638   -9.6757   17.4320 C   0  0  0  0  0  0  0  0  0  0  0  0
    9.0820   -5.3713   16.4340 C   0  0  0  0  0  0  0  0  0  0  0  0
    6.4200  -10.9218   17.9880 C   0  0  0  0  0  0  0  0  0  0  0  0
    8.7840   -4.4665   15.2334 O   0  0  0  0  0  0  0  0  0  0  0  0
   10.9772   -4.1515   17.9566 C   0  0  0  0  0  0  0  0  0  0  0  0
    6.3159   -7.5263   18.2327 O   0  0  0  0  0  0  0  0  0  0  0  0
    1.2236   -9.6773   16.6776 N   0  0  0  0  0  0  0  0  0  0  0  0
    9.0788   -0.4624   26.5489 O   0  0  0  0  0  0  0  0  0  0  0  0
    8.8090   -6.7788   16.4589 C   0  0  0  0  0  0  0  0  0  0  0  0
   12.0974   -2.5488   17.7796 O   0  0  0  0  0  0  0  0  0  0  0  0
    6.0610   -8.9209   15.9419 C   0  0  0  0  0  0  0  0  0  0  0  0
    1.7898  -12.1323   20.0857 C   0  0  0  0  0  0  0  0  0  0  0  0
    7.6709    0.9108   25.2216 O   0  0  0  0  0  0  0  0  0  0  0  0
    9.3590   -7.3733   15.8551 C   0  0  0  0  0  0  0  0  0  0  0  0
    9.1827   -6.1467   18.4971 N   0  0  0  0  0  0  0  0  0  0  0  0
    3.3965   -8.6820   16.5818 C   0  0  0  0  0  0  0  0  0  0  0  0
    0.7058  -12.6461   19.4239 C   0  0  0  0  0  0  0  0  0  0  0  0
    2.0991   -9.1463   16.5783 C   0  0  0  0  0  0  0  0  0  0  0  0
    8.3798   -7.3011   17.3177 C   0  0  0  0  0  0  0  0  0  0  0  0
    2.1531  -10.5150   17.5863 O   0  0  0  0  0  0  0  0  0  0  0  0
    7.1693   -5.8285   17.4869 Se  0  0  0  0  0  0  0  0  0  0  0  0
    5.3577   -7.9936   15.5144 He  0  0  0  0  0  0  0  0  0  0  0  0
    4.7124   -9.7496   18.6679 He  0  0  0  0  0  0  0  0  0  0  0  0
    5.2037   -7.2855   16.6157 He  0  0  0  0  0  0  0  0  0  0  0  0
    6.6880   -7.5924   15.4762 He  0  0  0  0  0  0  0  0  0  0  0  0
    1.2320  -11.4265   18.6958 He  0  0  0  0  0  0  0  0  0  0  0  0
  1  2  4  0
  1 16  2  0
  1 21  1  0
  1 22  2  0
  1 25  1  0
  1 26  1  0
  2 13  1  0
  3  8  4  0
  3 10  3  0
  3 11  3  0
  3 16  3  0
  3 18  2  0
  3 23  4  0
  4  7  4  0
  4 13  1  0
  4 17  1  0
  4 25  1  0
  5 10  4  0
  5 13  4  0
  5 18  1  0
  6 11  2  0
  6 12  1  0
  6 15  2  0
  6 19  1  0
  6 22  1  0
  7 16  3  0
  7 20  4  0
  7 26  4  0
  8 18  1  0
  9 11  1  0
  9 12  3  0
  9 17  3  0
  9 22  3  0
  9 23  1  0
  9 24  1  0
  9 27  1  0
 10 11  1  0
 10 12  2  0
 10 23  2  0
 10 28  2  0
 11 14  2  0
 11 17  1  0
 11 20  1  0
 11 24  3  0
 11 25  3  0
 11 28  3  0
 12 15  3  0
 12 21  2  0
 12 22  1  0
 13 14  3  0
 13 18  1  0
 13 20  3  0
 13 22  3  0
 14 16  3  0
 14 23  3  0
 15 16  1  0
 15 19  1  0
 15 22  4  0
 15 26  4  0
 15 29  4  0
 16 25  1  0
 16 27  4  0
 17 26  2  0
 17 27  1  0
 17 28  4  0
 17 29  2  0
 18 29  1  0
 19 27  2  0
 20 23  1  0
 20 25  4  0
 21 22  2  0
 21 23  1  0
 21 28  4  0
 21 29  4  0
 22 23  4  0
 22 25  4  0
 22 28  2  0
 22 29  3  0
 23 29  3  0
 24 25  3  0
 24 29  4  0
 25 29  2  0
 27 29  2  0
M  END
$$$$

 Created by Python create_sdf_string function

 34 31  0  0  0  0  0  0  0  0999 V2000
    8.5583   -0.1928   25.4767 C   0  0  0  0  0  0  0  0  0  0  0  0
    9.1371   -1.1586   24.4129 C   0  0  0  0  0  0  0  0  0  0  0  0
   10.1090   -5.6653   19.1453 C   0  0  0  0  0  0  0  0  0  0  0  0
    2.8031  -10.6311   18.3133 C   0  0  0  0  0  0  0  0  0  0  0  0
   10.0441   -4.2766   16.9521 C   0  0  0  0  0  0  0  0  0  0  0  0
    7.4164   -9.0363   15.6108 C   0  0  0  0  0  0  0  0  0  0  0  0
    3.0855  -11.5269   19.4587 C   0  0  0  0  0  0  0  0  0  0  0  0
    5.4937   -8.0395   15.9980 C   0  0  0  0  0  0  0  0  0  0  0  0
   10.8862   -4.5986   19.1597 N   0  0  0  0  0  0  0  0  0  0  0  0
    3.9210   -9.6521   17.5474 C   0  0  0  0  0  0  0  0  0  0  0  0
    9.2054   -5.0339   16.6689 C   0  0  0  0  0  0  0  0  0  0  0  0
    5.9792   -9.8083   17.4150 C   0  0  0  0  0  0  0  0  0  0  0  0
    8.4164   -4.4256   15.3822 O   0  0  0  0  0  0  0  0  0  0  0  0
   10.8459   -3.8030   17.9193 C   0  0  0  0  0  0  0  0  0  0  0  0
    6.1556   -7.5078   18.3426 O   0  0  0  0  0  0  0  0  0  0  0  0
    4.9590   -9.8775   18.1895 O   0  0  0  0  0  0  0  0  0  0  0  0
    1.2745   -9.7819   16.8268 N   0  0  0  0  0  0  0  0  0  0  0  0
    8.9901   -0.3803   26.6654 O   0  0  0  0  0  0  0  0  0  0  0  0
    8.4676   -6.9922   16.6318 C   0  0  0  0  0  0  0  0  0  0  0  0
   11.4993   -2.7376   17.7527 O   0  0  0  0  0  0  0  0  0  0  0  0
    6.2191   -9.1333   15.9748 C   0  0  0  0  0  0  0  0  0  0  0  0
    5.2711   -7.6433   16.6690 C   0  0  0  0  0  0  0  0  0  0  0  0
    6.6432   -7.1538   15.4951 C   0  0  0  0  0  0  0  0  0  0  0  0
    2.1058  -12.3150   19.9588 C   0  0  0  0  0  0  0  0  0  0  0  0
    7.6368    0.8361   25.0930 O   0  0  0  0  0  0  0  0  0  0  0  0
    8.4744   -7.8708   15.6497 C   0  0  0  0  0  0  0  0  0  0  0  0
    0.6925  -11.4800   18.3812 C   0  0  0  0  0  0  0  0  0  0  0  0
    9.3215   -6.0785   18.3367 N   0  0  0  0  0  0  0  0  0  0  0  0
    3.3430   -8.9088   16.6429 C   0  0  0  0  0  0  0  0  0  0  0  0
    0.8854  -12.2574   19.4345 C   0  0  0  0  0  0  0  0  0  0  0  0
    2.1354   -8.9217   16.3017 C   0  0  0  0  0  0  0  0  0  0  0  0
    8.2554   -7.4552   17.3606 C   0  0  0  0  0  0  0  0  0  0  0  0
    1.6246  -10.5764   17.8081 C   0  0  0  0  0  0  0  0  0  0  0  0
    7.4800   -6.7004   17.6582 C   0  0  0  0  0  0  0  0  0  0  0  0
  1  2  1  0
  1 18  2  0
  1 25  1  0
  3  9  4  0
  3 28  4  0
  4  7  4  0
  4 10  4  0
  4 33  4  0
  5 11  4  0
  5 14  4  0
  6 21  1  0
  6 26  1  0
  7 24  4  0
  8 21  1  0
  8 22  1  0
  9 14  4  0
 10 16  1  0
 10 29  4  0
 11 13  2  0
 11 28  4  0
 12 16  1  0
 12 21  1  0
 14 20  1  0
 17 31  4  0
 17 33  4  0
 19 32  1  0
 24 30  4  0
 27 30  4  0
 27 33  4  0
 29 31  4  0
 32 34  1  0
M  END
$$$$

 Created by Python create_sdf_string function

 34 88  0  0  0  0  0  0  0  0999 V2000
    8.7316   -0.1923   25.7615 C   0  0  0  0  0  0  0  0  0  0  0  0
    9.1951   -1.4861   24.6726 C   0  0  0  0  0  0  0  0  0  0  0  0
    9.9210   -5.2694   19.3056 C   0  0  0  0  0  0  0  0  0  0  0  0
    2.7507  -11.0258   18.0599 C   0  0  0  0  0  0  0  0  0  0  0  0
   10.2614   -4.7273   16.8889 C   0  0  0  0  0  0  0  0  0  0  0  0
    7.1502   -8.7011   15.8836 C   0  0  0  0  0  0  0  0  0  0  0  0
    3.4485  -11.5500   18.6137 C   0  0  0  0  0  0  0  0  0  0  0  0
    3.7946   -8.3125   17.3028 C   0  0  0  0  0  0  0  0  0  0  0  0
   10.8518   -4.9134   19.0597 N   0  0  0  0  0  0  0  0  0  0  0  0
    3.7962   -9.8062   17.6005 C   0  0  0  0  0  0  0  0  0  0  0  0
    9.2724   -5.2390   17.0694 C   0  0  0  0  0  0  0  0  0  0  0  0
    6.1091   -9.6440   17.7478 C   0  0  0  0  0  0  0  0  0  0  0  0
    8.6311   -4.1973   15.3278 O   0  0  0  0  0  0  0  0  0  0  0  0
   10.8631   -4.1629   18.6008 C   0  0  0  0  0  0  0  0  0  0  0  0
    6.2044   -7.4366   18.1893 O   0  0  0  0  0  0  0  0  0  0  0  0
    4.9526  -10.1428   18.1561 O   0  0  0  0  0  0  0  0  0  0  0  0
    1.5646   -9.9786   17.1650 N   0  0  0  0  0  0  0  0  0  0  0  0
    9.3114   -0.4760   26.3040 O   0  0  0  0  0  0  0  0  0  0  0  0
    8.7406   -7.2747   16.3708 C   0  0  0  0  0  0  0  0  0  0  0  0
   11.8090   -2.8314   18.0324 O   0  0  0  0  0  0  0  0  0  0  0  0
    6.0190   -8.6592   16.4409 C   0  0  0  0  0  0  0  0  0  0  0  0
    1.3218  -12.0727   19.6961 S   0  0  0  0  0  0  0  0  0  0  0  0
    7.1032    0.8724   24.8499 O   0  0  0  0  0  0  0  0  0  0  0  0
    7.1439   -7.8106   14.4505 Br  0  0  0  0  0  0  0  0  0  0  0  0
    1.3619  -12.0414   18.4021 C   0  0  0  0  0  0  0  0  0  0  0  0
    9.4422   -6.1230   18.0150 N   0  0  0  0  0  0  0  0  0  0  0  0
    3.1955   -8.9585   16.3786 F   0  0  0  0  0  0  0  0  0  0  0  0
    1.3559  -12.6492   19.9694 C   0  0  0  0  0  0  0  0  0  0  0  0
    2.4366   -9.0133   16.1250 C   0  0  0  0  0  0  0  0  0  0  0  0
    8.7595   -7.7237   17.7550 C   0  0  0  0  0  0  0  0  0  0  0  0
    7.3950   -6.8636   17.1040 C   0  0  0  0  0  0  0  0  0  0  0  0
    4.3278   -9.0464   17.5634 He  0  0  0  0  0  0  0  0  0  0  0  0
    7.7117   -7.8568   16.0500 He  0  0  0  0  0  0  0  0  0  0  0  0
    1.4874  -10.5197   17.2175 He  0  0  0  0  0  0  0  0  0  0  0  0
  1  2  1  0
  1  4  1  0
  1  8  4  0
  1 18  2  0
  1 23  1  0
  1 28  2  0
  1 31  3  0
  2 23  3  0
  2 24  3  0
  2 28  4  0
  3 10  1  0
  3 12  2  0
  3 26  4  0
  4  7  4  0
  4  8  1  0
  4 10  4  0
  4 17  3  0
  4 19  2  0
  4 24  3  0
  4 31  4  0
  5 11  4  0
  5 14  2  0
  5 22  2  0
  6 18  3  0
  6 21  1  0
  6 31  2  0
  7  8  4  0
  7 12  3  0
  7 18  3  0
  7 22  4  0
  7 27  2  0
  7 30  2  0
  7 31  4  0
  8 12  4  0
  8 13  1  0
  8 15  2  0
  8 30  4  0
  8 31  1  0
  9 12  4  0
  9 14  4  0
  9 18  2  0
  9 20  2  0
  9 28  3  0
 10 14  4  0
 10 16  1  0
 10 22  4  0
 10 27  4  0
 11 12  1  0
 11 13  2  0
 11 18  4  0
 11 24  4  0
 11 26  4  0
 11 28  4  0
 12 15  1  0
 12 16  2  0
 12 19  1  0
 12 23  1  0
 12 24  4  0
 12 26  1  0
 12 27  1  0
 13 16  3  0
 13 17  1  0
 13 24  3  0
 14 31  4  0
 15 24  3  0
 15 27  2  0
 15 29  3  0
 15 31  4  0
 16 23  1  0
 17 29  4  0
 18 24  3  0
 18 31  4  0
 19 26  1  0
 19 27  3  0
 19 29  3  0
 19 30  1  0
 21 24  2  0
 21 29  3  0
 23 24  3  0
 23 30  4  0
 23 31  3  0
 24 26  3  0
 24 27  4  0
 24 29  2  0
 24 30  4  0
 25 28  4  0
 25 29  3  0
 27 29  4  0
M  END
$$$$

 Created by Python create_sdf_string function

 34 35  0  0  0  0  0  0  0  0999 V2000
    8.6359   -0.2519   25.4515 C   0  0  0  0  0  0  0  0  0  0  0  0
    9.1942   -1.3569   24.4930 C   0  0  0  0  0  0  0  0  0  0  0  0
    9.9218   -5.7172   19.0531 C   0  0  0  0  0  0  0  0  0  0  0  0
    2.8064  -10.7840   18.2299 C   0  0  0  0  0  0  0  0  0  0  0  0
   10.3272   -3.9830   17.0102 C   0  0  0  0  0  0  0  0  0  0  0  0
    7.2128   -8.7191   15.7230 C   0  0  0  0  0  0  0  0  0  0  0  0
    3.1568  -11.6438   19.3233 C   0  0  0  0  0  0  0  0  0  0  0  0
    4.9086   -7.9163   16.3466 C   0  0  0  0  0  0  0  0  0  0  0  0
   10.7009   -4.6933   19.2848 C   0  0  0  0  0  0  0  0  0  0  0  0
    3.7429   -9.9099   17.6344 C   0  0  0  0  0  0  0  0  0  0  0  0
    9.3878   -4.9277   16.7627 C   0  0  0  0  0  0  0  0  0  0  0  0
    5.9919   -8.9059   17.7421 C   0  0  0  0  0  0  0  0  0  0  0  0
    8.6245   -4.7241   15.6896 O   0  0  0  0  0  0  0  0  0  0  0  0
   10.9832   -3.8564   18.2139 C   0  0  0  0  0  0  0  0  0  0  0  0
    6.3042   -7.2992   18.4413 O   0  0  0  0  0  0  0  0  0  0  0  0
    5.0546  -10.0411   18.2314 O   0  0  0  0  0  0  0  0  0  0  0  0
    1.1517  -10.0176   16.7570 N   0  0  0  0  0  0  0  0  0  0  0  0
    9.2345   -0.2188   26.5739 O   0  0  0  0  0  0  0  0  0  0  0  0
    8.6336   -7.1429   17.0709 C   0  0  0  0  0  0  0  0  0  0  0  0
   11.8457   -2.9178   18.3561 O   0  0  0  0  0  0  0  0  0  0  0  0
    6.0306   -8.6478   16.2298 C   0  0  0  0  0  0  0  0  0  0  0  0
    4.7076   -8.6260   16.9920 C   0  0  0  0  0  0  0  0  0  0  0  0
    8.1326   -7.7258   16.4466 C   0  0  0  0  0  0  0  0  0  0  0  0
    2.1881  -12.4148   19.8473 C   0  0  0  0  0  0  0  0  0  0  0  0
    7.5421    0.6082   25.0431 O   0  0  0  0  0  0  0  0  0  0  0  0
    7.2246   -7.9269   14.7253 O   0  0  0  0  0  0  0  0  0  0  0  0
    0.6720  -11.7033   18.3389 C   0  0  0  0  0  0  0  0  0  0  0  0
    9.3733   -5.8625   17.7181 N   0  0  0  0  0  0  0  0  0  0  0  0
    3.2424   -9.1579   16.7705 C   0  0  0  0  0  0  0  0  0  0  0  0
    0.9929  -12.4389   19.3588 C   0  0  0  0  0  0  0  0  0  0  0  0
    1.9724   -9.1536   16.2957 C   0  0  0  0  0  0  0  0  0  0  0  0
    8.9968   -8.1674   17.7175 C   0  0  0  0  0  0  0  0  0  0  0  0
    1.5192  -10.8354   17.7148 C   0  0  0  0  0  0  0  0  0  0  0  0
    7.1891   -6.7918   17.3275 C   0  0  0  0  0  0  0  0  0  0  0  0
  1  2  1  0
  1 18  2  0
  1 25  1  0
  3  9  4  0
  3 28  4  0
  4  7  4  0
  4 10  4  0
  4 33  4  0
  5 11  4  0
  5 14  4  0
  6 21  1  0
  6 23  1  0
  6 26  1  0
  7 24  4  0
  8 21  1  0
  9 14  4  0
 10 16  1  0
 10 29  4  0
 11 13  2  0
 11 28  4  0
 12 15  1  0
 12 21  1  0
 14 20  2  0
 15 34  1  0
 17 31  4  0
 17 33  4  0
 19 23  1  0
 19 28  1  0
 19 32  1  0
 19 34  1  0
 23 32  1  0
 24 30  4  0
 27 30  4  0
 27 33  4  0
 29 31  4  0
M  END
$$$$

 Created by Python create_sdf_string function

 34 76  0  0  0  0  0  0  0  0999 V2000
    8.1673   -0.4918   25.5753 C   0  0  0  0  0  0  0  0  0  0  0  0
    8.9374   -0.8655   24.8852 C   0  0  0  0  0  0  0  0  0  0  0  0
    9.8059   -5.4094   19.1586 C   0  0  0  0  0  0  0  0  0  0  0  0
    2.8041  -10.6449   18.3446 C   0  0  0  0  0  0  0  0  0  0  0  0
    7.2532   -9.1765   15.4201 C   0  0  0  0  0  0  0  0  0  0  0  0
    2.7425  -11.3083   19.7589 S   0  0  0  0  0  0  0  0  0  0  0  0
    3.6688   -8.2939   14.9157 C   0  0  0  0  0  0  0  0  0  0  0  0
   10.3295   -4.7017   19.6901 C   0  0  0  0  0  0  0  0  0  0  0  0
    3.5519   -9.5509   17.9840 C   0  0  0  0  0  0  0  0  0  0  0  0
    9.4030   -5.1680   16.8058 F   0  0  0  0  0  0  0  0  0  0  0  0
    4.6525   -9.4189   18.0666 O   0  0  0  0  0  0  0  0  0  0  0  0
   11.5010   -3.8008   18.1850 C   0  0  0  0  0  0  0  0  0  0  0  0
    6.2730   -7.9698   18.6392 O   0  0  0  0  0  0  0  0  0  0  0  0
    5.4909   -9.5767   17.8534 O   0  0  0  0  0  0  0  0  0  0  0  0
    1.0182  -10.1692   17.1364 N   0  0  0  0  0  0  0  0  0  0  0  0
    9.5927   -0.4852   26.9979 O   0  0  0  0  0  0  0  0  0  0  0  0
    8.5180   -7.1458   16.8920 C   0  0  0  0  0  0  0  0  0  0  0  0
   11.9782   -3.2322   18.0919 C   0  0  0  0  0  0  0  0  0  0  0  0
    6.1705   -8.8323   16.3397 C   0  0  0  0  0  0  0  0  0  0  0  0
    1.8081  -12.3556   19.6953 C   0  0  0  0  0  0  0  0  0  0  0  0
    6.6567    0.5520   24.9135 Br  0  0  0  0  0  0  0  0  0  0  0  0
    7.3258   -6.9336   14.2378 F   0  0  0  0  0  0  0  0  0  0  0  0
    3.1841   -9.1165   16.8239 C   0  0  0  0  0  0  0  0  0  0  0  0
    0.7802  -12.0829   19.5489 C   0  0  0  0  0  0  0  0  0  0  0  0
    1.8813   -9.1316   16.4294 C   0  0  0  0  0  0  0  0  0  0  0  0
    8.9896   -8.0118   17.9932 C   0  0  0  0  0  0  0  0  0  0  0  0
    1.1917  -10.6108   17.6265 C   0  0  0  0  0  0  0  0  0  0  0  0
    7.7283   -8.0165   17.9862 C   0  0  0  0  0  0  0  0  0  0  0  0
   10.7035   -4.0781   16.8174 He  0  0  0  0  0  0  0  0  0  0  0  0
    9.3318   -4.5917   15.3600 He  0  0  0  0  0  0  0  0  0  0  0  0
    5.1149   -7.4554   16.4697 He  0  0  0  0  0  0  0  0  0  0  0  0
    8.3503   -7.8414   15.3505 He  0  0  0  0  0  0  0  0  0  0  0  0
    1.0128  -11.5023   18.3445 He  0  0  0  0  0  0  0  0  0  0  0  0
    9.6153   -5.4165   18.2564 He  0  0  0  0  0  0  0  0  0  0  0  0
  1  2  1  0
  1  5  2  0
  1  7  1  0
  1 11  3  0
  1 16  2  0
  1 28  2  0
  2  6  1  0
  2  9  1  0
  2 11  3  0
  2 18  4  0
  2 22  2  0
  2 28  4  0
  3  7  4  0
  3  8  2  0
  3 12  3  0
  3 21  4  0
  3 23  1  0
  3 28  3  0
  4  6  4  0
  4  7  2  0
  4  9  4  0
  4 21  2  0
  5 19  1  0
  5 22  1  0
  6  9  4  0
  6 11  3  0
  6 15  2  0
  6 20  4  0
  6 28  3  0
  7  8  2  0
  7 17  3  0
  7 18  1  0
  7 19  3  0
  7 20  4  0
  7 25  3  0
  8 10  4  0
  8 11  4  0
  8 23  4  0
  9 23  4  0
  9 25  3  0
 10 26  1  0
 10 28  4  0
 11 12  1  0
 11 15  4  0
 11 19  4  0
 11 20  4  0
 11 24  3  0
 11 26  3  0
 12 18  2  0
 12 28  2  0
 13 16  1  0
 13 22  2  0
 13 23  2  0
 13 27  1  0
 14 19  4  0
 15 25  4  0
 15 27  4  0
 15 28  2  0
 16 19  4  0
 17 18  4  0
 17 21  3  0
 17 26  1  0
 18 22  2  0
 18 25  2  0
 19 23  3  0
 19 28  4  0
 20 22  2  0
 20 24  3  0
 21 27  4  0
 21 28  2  0
 22 26  4  0
 22 28  4  0
 23 25  4  0
 23 28  4  0
 24 25  1  0
 26 27  3  0
M  END
$$$$

 Created by Python create_sdf_string function

 34 32  0  0  0  0  0  0  0  0999 V2000
    8.3771   -0.2530   25.7193 C   0  0  0  0  0  0  0  0  0  0  0  0
    9.1197   -0.9803   24.5906 C   0  0  0  0  0  0  0  0  0  0  0  0
    9.8405   -5.5573   19.0482 C   0  0  0  0  0  0  0  0  0  0  0  0
    2.5539  -10.6571   18.3482 C   0  0  0  0  0  0  0  0  0  0  0  0
   10.5675   -3.9842   17.0115 C   0  0  0  0  0  0  0  0  0  0  0  0
    7.2592   -8.7543   15.6142 C   0  0  0  0  0  0  0  0  0  0  0  0
    2.9037  -11.4916   19.4587 C   0  0  0  0  0  0  0  0  0  0  0  0
    4.3648   -8.0564   15.5070 C   0  0  0  0  0  0  0  0  0  0  0  0
   10.4848   -4.6501   19.5568 C   0  0  0  0  0  0  0  0  0  0  0  0
    3.4553   -9.7811   17.7047 C   0  0  0  0  0  0  0  0  0  0  0  0
    9.6668   -4.9709   16.7421 C   0  0  0  0  0  0  0  0  0  0  0  0
    5.0468   -9.1714   17.7651 C   0  0  0  0  0  0  0  0  0  0  0  0
    9.0136   -4.9345   15.6321 O   0  0  0  0  0  0  0  0  0  0  0  0
   11.1084   -3.6844   18.3538 C   0  0  0  0  0  0  0  0  0  0  0  0
    6.3680   -8.0203   18.7979 O   0  0  0  0  0  0  0  0  0  0  0  0
    5.3088   -9.5864   17.8713 O   0  0  0  0  0  0  0  0  0  0  0  0
    0.9228   -9.9317   16.8342 N   0  0  0  0  0  0  0  0  0  0  0  0
    9.0081   -0.3182   26.8506 O   0  0  0  0  0  0  0  0  0  0  0  0
    8.5678   -7.0100   17.4304 C   0  0  0  0  0  0  0  0  0  0  0  0
   11.7749   -2.8517   18.5776 O   0  0  0  0  0  0  0  0  0  0  0  0
    6.1715   -8.8241   16.4916 C   0  0  0  0  0  0  0  0  0  0  0  0
    5.1920   -7.7545   15.9390 C   0  0  0  0  0  0  0  0  0  0  0  0
    8.1991   -8.0358   15.4911 C   0  0  0  0  0  0  0  0  0  0  0  0
    1.9107  -12.2824   20.0433 C   0  0  0  0  0  0  0  0  0  0  0  0
    7.1044    0.5444   25.4233 O   0  0  0  0  0  0  0  0  0  0  0  0
    7.3976   -7.1089   15.1540 C   0  0  0  0  0  0  0  0  0  0  0  0
    0.3814  -11.5023   18.4406 C   0  0  0  0  0  0  0  0  0  0  0  0
    9.4355   -5.8052   17.7508 C   0  0  0  0  0  0  0  0  0  0  0  0
    3.1004   -9.1017   16.6853 C   0  0  0  0  0  0  0  0  0  0  0  0
    0.7066  -12.3288   19.4874 C   0  0  0  0  0  0  0  0  0  0  0  0
    1.8623   -9.1172   16.2169 C   0  0  0  0  0  0  0  0  0  0  0  0
    9.0877   -8.0510   17.8573 C   0  0  0  0  0  0  0  0  0  0  0  0
    1.2924  -10.6963   17.8660 C   0  0  0  0  0  0  0  0  0  0  0  0
    7.4650   -7.7075   17.7733 C   0  0  0  0  0  0  0  0  0  0  0  0
  1  2  1  0
  1 18  2  0
  1 25  1  0
  3  9  4  0
  3 28  4  0
  4  7  4  0
  4 10  4  0
  4 33  4  0
  5 11  4  0
  5 14  4  0
  6 21  1  0
  6 23  1  0
  6 26  1  0
  7 24  4  0
  8 22  4  0
  9 14  4  0
 10 29  4  0
 11 13  1  0
 11 28  4  0
 12 16  1  0
 14 20  2  0
 16 21  4  0
 17 31  4  0
 17 33  4  0
 19 28  1  0
 19 32  1  0
 19 34  1  0
 23 26  1  0
 24 30  4  0
 27 30  4  0
 27 33  4  0
 29 31  4  0
M  END
$$$$

 Created by Python create_sdf_string function

 34 77  0  0  0  0  0  0  0  0999 V2000
    8.4446   -0.2591   25.3979 C   0  0  0  0  0  0  0  0  0  0  0  0
    9.6301   -1.1707   24.9781 N   0  0  0  0  0  0  0  0  0  0  0  0
   10.0568   -5.3750   18.9569 C   0  0  0  0  0  0  0  0  0  0  0  0
    2.1122  -10.4506   18.4142 C   0  0  0  0  0  0  0  0  0  0  0  0
   10.5559   -3.5444   16.9242 C   0  0  0  0  0  0  0  0  0  0  0  0
    7.2812   -9.0506   15.4588 C   0  0  0  0  0  0  0  0  0  0  0  0
    4.7762   -7.1381   16.2608 S   0  0  0  0  0  0  0  0  0  0  0  0
   10.7499   -4.4303   19.3086 C   0  0  0  0  0  0  0  0  0  0  0  0
    3.9895   -9.8801   17.6959 I   0  0  0  0  0  0  0  0  0  0  0  0
    9.2716   -4.9489   16.9859 C   0  0  0  0  0  0  0  0  0  0  0  0
    5.9700   -8.3691   17.1836 Se  0  0  0  0  0  0  0  0  0  0  0  0
   11.2313   -4.0838   18.4116 C   0  0  0  0  0  0  0  0  0  0  0  0
    6.1746   -8.2577   18.6361 C   0  0  0  0  0  0  0  0  0  0  0  0
    5.6209   -9.2604   17.9231 O   0  0  0  0  0  0  0  0  0  0  0  0
    1.2200   -9.7987   16.9238 N   0  0  0  0  0  0  0  0  0  0  0  0
    9.0782   -0.4817   26.6315 O   0  0  0  0  0  0  0  0  0  0  0  0
    8.4245   -6.9016   17.7691 B   0  0  0  0  0  0  0  0  0  0  0  0
    6.4760   -8.9566   16.6305 C   0  0  0  0  0  0  0  0  0  0  0  0
    5.6446   -8.7179   15.7988 C   0  0  0  0  0  0  0  0  0  0  0  0
    8.5044   -7.1267   14.2159 C   0  0  0  0  0  0  0  0  0  0  0  0
    1.8687  -12.3703   19.9931 C   0  0  0  0  0  0  0  0  0  0  0  0
    7.4515    0.9004   24.7667 O   0  0  0  0  0  0  0  0  0  0  0  0
    7.0947   -7.5219   14.2225 C   0  0  0  0  0  0  0  0  0  0  0  0
    0.0860  -11.3978   18.3335 C   0  0  0  0  0  0  0  0  0  0  0  0
    0.8736  -12.0829   18.8944 C   0  0  0  0  0  0  0  0  0  0  0  0
    1.8033   -8.3660   16.2301 O   0  0  0  0  0  0  0  0  0  0  0  0
    9.3103   -8.5386   18.5074 C   0  0  0  0  0  0  0  0  0  0  0  0
    1.7002  -10.8038   17.4198 C   0  0  0  0  0  0  0  0  0  0  0  0
    2.9535  -11.6396   19.9562 He  0  0  0  0  0  0  0  0  0  0  0  0
    8.6152   -4.6961   15.4884 He  0  0  0  0  0  0  0  0  0  0  0  0
   12.5187   -2.5744   18.5737 He  0  0  0  0  0  0  0  0  0  0  0  0
    9.5741   -6.3198   17.7005 He  0  0  0  0  0  0  0  0  0  0  0  0
    2.9623   -9.2652   16.7402 He  0  0  0  0  0  0  0  0  0  0  0  0
    7.3388   -6.5379   17.9921 He  0  0  0  0  0  0  0  0  0  0  0  0
  1  2  1  0
  1  7  3  0
  1 12  2  0
  1 16  1  0
  1 18  1  0
  1 22  1  0
  1 23  1  0
  2  6  4  0
  2  7  2  0
  2 15  3  0
  2 25  4  0
  2 28  1  0
  3  7  2  0
  3  8  4  0
  3 12  2  0
  3 15  4  0
  4  9  4  0
  4 26  3  0
  4 28  4  0
  5  7  1  0
  5 10  4  0
  5 12  4  0
  5 19  4  0
  6  7  1  0
  6 19  4  0
  6 20  1  0
  7  9  3  0
  7 11  2  0
  7 12  1  0
  7 18  4  0
  7 19  2  0
  7 24  3  0
  7 25  4  0
  7 26  1  0
  7 27  1  0
  8 12  4  0
  8 15  2  0
  8 17  3  0
  8 23  2  0
  9 12  4  0
  9 16  3  0
  9 23  1  0
  9 24  3  0
  9 28  2  0
 10 16  2  0
 10 19  3  0
 10 24  4  0
 11 12  1  0
 11 17  2  0
 11 19  3  0
 11 20  4  0
 11 21  3  0
 11 22  2  0
 11 27  1  0
 12 20  2  0
 13 20  3  0
 13 23  3  0
 13 28  2  0
 14 18  4  0
 15 20  3  0
 15 24  2  0
 15 26  4  0
 16 21  4  0
 17 20  4  0
 17 27  1  0
 19 21  3  0
 19 23  1  0
 20 26  3  0
 20 27  2  0
 21 23  3  0
 21 25  4  0
 21 27  2  0
 23 24  2  0
 23 25  1  0
 23 27  1  0
 24 25  4  0
 24 28  4  0
M  END
$$$$

 Created by Python create_sdf_string function

 34 33  0  0  0  0  0  0  0  0999 V2000
    8.6176   -0.1778   25.4438 C   0  0  0  0  0  0  0  0  0  0  0  0
    9.3596   -1.1134   24.5692 N   0  0  0  0  0  0  0  0  0  0  0  0
   10.0689   -5.6438   19.0809 C   0  0  0  0  0  0  0  0  0  0  0  0
    2.6031  -10.7252   18.3547 C   0  0  0  0  0  0  0  0  0  0  0  0
   10.4256   -3.8449   17.0726 C   0  0  0  0  0  0  0  0  0  0  0  0
    7.3888   -8.8663   15.5249 C   0  0  0  0  0  0  0  0  0  0  0  0
    2.7484  -11.6136   19.5063 C   0  0  0  0  0  0  0  0  0  0  0  0
    4.9490   -7.3331   16.0080 C   0  0  0  0  0  0  0  0  0  0  0  0
   10.8676   -4.5554   19.2680 C   0  0  0  0  0  0  0  0  0  0  0  0
    3.6529   -9.9386   17.9043 N   0  0  0  0  0  0  0  0  0  0  0  0
    9.5505   -4.8617   16.8525 C   0  0  0  0  0  0  0  0  0  0  0  0
    5.3596   -8.5804   16.6562 C   0  0  0  0  0  0  0  0  0  0  0  0
    8.8102   -4.8478   15.6963 F   0  0  0  0  0  0  0  0  0  0  0  0
   11.0891   -3.6294   18.2744 C   0  0  0  0  0  0  0  0  0  0  0  0
    6.1824   -7.9599   18.5471 C   0  0  0  0  0  0  0  0  0  0  0  0
    5.9934   -9.1784   18.0771 O   0  0  0  0  0  0  0  0  0  0  0  0
    1.1826   -9.6322   16.7603 N   0  0  0  0  0  0  0  0  0  0  0  0
    8.8273   -0.3473   26.7413 O   0  0  0  0  0  0  0  0  0  0  0  0
    8.5156   -7.0441   17.6178 C   0  0  0  0  0  0  0  0  0  0  0  0
   11.7943   -2.6367   18.4062 O   0  0  0  0  0  0  0  0  0  0  0  0
    6.7529   -8.8643   16.6417 C   0  0  0  0  0  0  0  0  0  0  0  0
    5.4797   -8.2627   15.6033 C   0  0  0  0  0  0  0  0  0  0  0  0
    8.1721   -7.5593   15.1420 C   0  0  0  0  0  0  0  0  0  0  0  0
    1.7335  -12.3254   19.8722 C   0  0  0  0  0  0  0  0  0  0  0  0
    7.7205    0.7050   24.9171 O   0  0  0  0  0  0  0  0  0  0  0  0
    7.0878   -7.6415   15.1606 C   0  0  0  0  0  0  0  0  0  0  0  0
    0.4006  -11.4086   18.1456 C   0  0  0  0  0  0  0  0  0  0  0  0
    9.4000   -5.8188   17.8534 C   0  0  0  0  0  0  0  0  0  0  0  0
    3.4506   -9.1895   16.9286 C   0  0  0  0  0  0  0  0  0  0  0  0
    0.5690  -12.2346   19.2525 C   0  0  0  0  0  0  0  0  0  0  0  0
    2.2119   -8.9094   16.3275 C   0  0  0  0  0  0  0  0  0  0  0  0
    9.0973   -8.2608   18.0794 C   0  0  0  0  0  0  0  0  0  0  0  0
    1.3781  -10.5703   17.7682 C   0  0  0  0  0  0  0  0  0  0  0  0
    7.2383   -7.0721   17.7467 C   0  0  0  0  0  0  0  0  0  0  0  0
  1  2  1  0
  1 18  1  0
  1 25  1  0
  3  9  4  0
  3 28  4  0
  4  7  4  0
  4 10  4  0
  4 33  4  0
  5 11  4  0
  5 14  4  0
  6 21  1  0
  6 23  1  0
  7 24  4  0
  9 14  4  0
 10 29  4  0
 11 13  1  0
 11 28  4  0
 12 21  1  0
 12 22  1  0
 12 29  1  0
 14 20  2  0
 15 16  1  0
 15 34  1  0
 17 31  4  0
 17 33  4  0
 19 28  1  0
 19 32  1  0
 19 34  1  0
 23 26  1  0
 24 30  4  0
 27 30  4  0
 27 33  4  0
 29 31  4  0
M  END
$$$$

 Created by Python create_sdf_string function

 34 67  0  0  0  0  0  0  0  0999 V2000
    8.2018    0.3255   25.3271 C   0  0  0  0  0  0  0  0  0  0  0  0
    8.9695   -1.4469   24.6111 N   0  0  0  0  0  0  0  0  0  0  0  0
    9.9736   -5.5375   19.0954 C   0  0  0  0  0  0  0  0  0  0  0  0
    2.6794  -10.9027   18.2394 C   0  0  0  0  0  0  0  0  0  0  0  0
   10.6878   -3.6894   17.1011 C   0  0  0  0  0  0  0  0  0  0  0  0
    7.0650   -8.9478   14.6210 C   0  0  0  0  0  0  0  0  0  0  0  0
    2.7450  -11.7872   19.4408 Br  0  0  0  0  0  0  0  0  0  0  0  0
    4.0206   -6.1819   15.5722 S   0  0  0  0  0  0  0  0  0  0  0  0
    3.7447   -9.8092   18.5168 N   0  0  0  0  0  0  0  0  0  0  0  0
    9.0231   -4.5464   16.8635 C   0  0  0  0  0  0  0  0  0  0  0  0
   11.0551   -3.5467   17.9372 C   0  0  0  0  0  0  0  0  0  0  0  0
    6.8124   -7.8748   18.4814 C   0  0  0  0  0  0  0  0  0  0  0  0
    5.2719   -9.2277   18.1806 O   0  0  0  0  0  0  0  0  0  0  0  0
    1.2983   -9.6263   17.3687 N   0  0  0  0  0  0  0  0  0  0  0  0
    9.5558    0.0371   26.6585 O   0  0  0  0  0  0  0  0  0  0  0  0
   11.9049   -2.5612   18.7725 O   0  0  0  0  0  0  0  0  0  0  0  0
    7.5843   -7.6805   15.2387 Cl  0  0  0  0  0  0  0  0  0  0  0  0
    1.4022  -12.6360   19.9011 C   0  0  0  0  0  0  0  0  0  0  0  0
    7.7621    0.4931   25.1111 O   0  0  0  0  0  0  0  0  0  0  0  0
    7.1684   -7.8948   14.1582 N   0  0  0  0  0  0  0  0  0  0  0  0
    0.7020  -11.6661   18.2176 N   0  0  0  0  0  0  0  0  0  0  0  0
    9.0750   -5.7156   17.8439 C   0  0  0  0  0  0  0  0  0  0  0  0
    3.8997   -9.0662   17.0145 C   0  0  0  0  0  0  0  0  0  0  0  0
    2.4656   -8.4041   15.9763 C   0  0  0  0  0  0  0  0  0  0  0  0
    8.6719   -8.1473   17.4156 C   0  0  0  0  0  0  0  0  0  0  0  0
    1.0343  -10.3373   17.2295 C   0  0  0  0  0  0  0  0  0  0  0  0
   10.9156   -4.5785   18.8900 He  0  0  0  0  0  0  0  0  0  0  0  0
    3.3355   -7.4528   17.4844 He  0  0  0  0  0  0  0  0  0  0  0  0
    9.3625   -4.5352   15.9411 He  0  0  0  0  0  0  0  0  0  0  0  0
    8.3675   -6.9640   17.3612 He  0  0  0  0  0  0  0  0  0  0  0  0
    6.5839   -8.4851   16.3484 He  0  0  0  0  0  0  0  0  0  0  0  0
    6.4939   -8.2011   16.9170 He  0  0  0  0  0  0  0  0  0  0  0  0
    0.9789  -12.1497   19.2645 He  0  0  0  0  0  0  0  0  0  0  0  0
    7.2320   -6.7174   17.4235 He  0  0  0  0  0  0  0  0  0  0  0  0
  1  2  4  0
  1  6  3  0
  1  8  1  0
  1 10  2  0
  1 15  1  0
  1 19  1  0
  1 20  2  0
  2  6  3  0
  2 11  2  0
  2 16  2  0
  3  4  2  0
  3  6  4  0
  3 21  3  0
  3 22  4  0
  4  7  4  0
  4  8  1  0
  4  9  4  0
  4 10  2  0
  4 14  4  0
  4 15  1  0
  4 18  1  0
  4 26  4  0
  5  8  2  0
  5  9  4  0
  5 10  4  0
  5 11  4  0
  5 19  4  0
  6 17  1  0
  6 22  2  0
  7 18  4  0
  7 26  4  0
  8 10  4  0
  8 12  1  0
  8 14  4  0
  8 16  2  0
  8 17  2  0
  8 19  1  0
  8 22  1  0
  8 23  4  0
  8 25  1  0
  9 13  1  0
  9 20  1  0
  9 21  4  0
 10 13  4  0
 10 22  4  0
 10 23  3  0
 11 16  2  0
 12 13  1  0
 12 23  4  0
 13 17  1  0
 13 20  2  0
 13 21  2  0
 14 19  2  0
 14 20  3  0
 14 24  1  0
 14 26  4  0
 15 19  2  0
 15 20  2  0
 15 21  4  0
 16 17  3  0
 17 20  1  0
 19 24  1  0
 20 22  2  0
 20 26  2  0
 21 24  1  0
 23 24  4  0
 24 26  1  0
M  END
$$$$

 Created by Python create_sdf_string function

 34 39  0  0  0  0  0  0  0  0999 V2000
    8.6967   -0.1800   25.3926 C   0  0  0  0  0  0  0  0  0  0  0  0
    9.0286   -1.3682   24.6019 N   0  0  0  0  0  0  0  0  0  0  0  0
    9.9925   -5.6195   18.9451 C   0  0  0  0  0  0  0  0  0  0  0  0
    2.6351  -10.7087   18.4419 C   0  0  0  0  0  0  0  0  0  0  0  0
   10.3602   -3.6778   17.0799 C   0  0  0  0  0  0  0  0  0  0  0  0
    7.1109   -8.8902   15.1973 C   0  0  0  0  0  0  0  0  0  0  0  0
    2.8220  -11.6789   19.4077 C   0  0  0  0  0  0  0  0  0  0  0  0
    4.4972   -7.1142   15.7423 O   0  0  0  0  0  0  0  0  0  0  0  0
   10.7505   -4.5629   19.2473 C   0  0  0  0  0  0  0  0  0  0  0  0
    3.6898   -9.8728   18.1240 N   0  0  0  0  0  0  0  0  0  0  0  0
    9.5256   -4.6526   16.7648 C   0  0  0  0  0  0  0  0  0  0  0  0
    4.7130   -8.2368   16.4892 C   0  0  0  0  0  0  0  0  0  0  0  0
    8.8598   -4.5091   15.6836 F   0  0  0  0  0  0  0  0  0  0  0  0
   10.9929   -3.5450   18.3205 C   0  0  0  0  0  0  0  0  0  0  0  0
    6.5163   -7.9966   18.3393 C   0  0  0  0  0  0  0  0  0  0  0  0
    5.1755   -9.3408   18.7595 O   0  0  0  0  0  0  0  0  0  0  0  0
    1.3343   -9.6246   16.8577 N   0  0  0  0  0  0  0  0  0  0  0  0
    9.4980    0.0538   26.5638 O   0  0  0  0  0  0  0  0  0  0  0  0
    8.4897   -6.7300   17.4307 C   0  0  0  0  0  0  0  0  0  0  0  0
   11.6952   -2.6193   18.5796 O   0  0  0  0  0  0  0  0  0  0  0  0
    6.2193   -8.8019   16.0810 C   0  0  0  0  0  0  0  0  0  0  0  0
    6.1715   -8.1214   16.9845 C   0  0  0  0  0  0  0  0  0  0  0  0
    7.9727   -7.8073   15.4443 C   0  0  0  0  0  0  0  0  0  0  0  0
    1.7798  -12.4482   19.7959 C   0  0  0  0  0  0  0  0  0  0  0  0
    7.6048    0.6441   25.0512 O   0  0  0  0  0  0  0  0  0  0  0  0
    7.3249   -7.4065   14.8870 C   0  0  0  0  0  0  0  0  0  0  0  0
    0.4202  -11.4873   18.2359 N   0  0  0  0  0  0  0  0  0  0  0  0
    9.3559   -5.6643   17.6914 C   0  0  0  0  0  0  0  0  0  0  0  0
    3.5666   -8.9804   17.1459 C   0  0  0  0  0  0  0  0  0  0  0  0
    0.6337  -12.3606   19.1434 C   0  0  0  0  0  0  0  0  0  0  0  0
    2.3527   -8.7814   16.5382 C   0  0  0  0  0  0  0  0  0  0  0  0
    8.9465   -8.0634   17.2261 C   0  0  0  0  0  0  0  0  0  0  0  0
    1.4524  -10.6209   17.8086 C   0  0  0  0  0  0  0  0  0  0  0  0
    7.1917   -6.8087   17.3512 C   0  0  0  0  0  0  0  0  0  0  0  0
  1  2  2  0
  1 18  1  0
  1 25  1  0
  3  9  4  0
  3 28  4  0
  4  7  4  0
  4 10  4  0
  4 33  4  0
  5 11  4  0
  5 14  4  0
  6 21  1  0
  6 23  1  0
  7 24  4  0
  8 12  1  0
  9 14  4  0
 10 16  1  0
 10 29  4  0
 11 13  1  0
 11 28  4  0
 12 21  1  0
 12 22  1  0
 12 29  1  0
 14 20  2  0
 15 16  1  0
 15 22  1  0
 15 34  1  0
 17 31  4  0
 17 33  4  0
 19 28  1  0
 19 32  1  0
 19 34  1  0
 21 22  1  0
 22 34  1  0
 23 26  1  0
 23 32  1  0
 24 30  4  0
 27 30  4  0
 27 33  4  0
 29 31  4  0
M  END
$$$$

 Created by Python create_sdf_string function

 34 69  0  0  0  0  0  0  0  0999 V2000
    8.9036    0.0705   25.6925 C   0  0  0  0  0  0  0  0  0  0  0  0
    9.0012   -1.0411   24.5917 N   0  0  0  0  0  0  0  0  0  0  0  0
   10.0887   -5.7529   19.1036 Cl  0  0  0  0  0  0  0  0  0  0  0  0
    2.3638  -10.2544   18.5103 C   0  0  0  0  0  0  0  0  0  0  0  0
   10.3923   -3.6596   16.9805 C   0  0  0  0  0  0  0  0  0  0  0  0
    7.2131   -8.5349   15.8852 C   0  0  0  0  0  0  0  0  0  0  0  0
    2.5531  -11.9244   19.7804 C   0  0  0  0  0  0  0  0  0  0  0  0
   10.5606   -4.3172   19.5895 N   0  0  0  0  0  0  0  0  0  0  0  0
    3.4855  -10.1773   17.6729 C   0  0  0  0  0  0  0  0  0  0  0  0
    9.2097   -4.7762   16.1638 C   0  0  0  0  0  0  0  0  0  0  0  0
   10.9571   -3.9021   19.2635 C   0  0  0  0  0  0  0  0  0  0  0  0
    6.4762   -7.7325   18.4607 C   0  0  0  0  0  0  0  0  0  0  0  0
    5.4063   -9.5509   18.8920 O   0  0  0  0  0  0  0  0  0  0  0  0
    1.5610  -10.3130   16.7667 N   0  0  0  0  0  0  0  0  0  0  0  0
    9.3231    0.4410   26.4531 O   0  0  0  0  0  0  0  0  0  0  0  0
    8.7985   -6.9840   17.0254 C   0  0  0  0  0  0  0  0  0  0  0  0
    5.7795   -8.9257   15.8501 C   0  0  0  0  0  0  0  0  0  0  0  0
    2.2427  -12.2551   19.8620 C   0  0  0  0  0  0  0  0  0  0  0  0
    7.7476    0.4425   24.8526 O   0  0  0  0  0  0  0  0  0  0  0  0
    7.0592   -6.8219   13.9298 C   0  0  0  0  0  0  0  0  0  0  0  0
   -0.0629  -11.1018   17.9661 N   0  0  0  0  0  0  0  0  0  0  0  0
    9.3168   -5.7303   17.5443 C   0  0  0  0  0  0  0  0  0  0  0  0
    3.3832   -9.3797   17.7605 C   0  0  0  0  0  0  0  0  0  0  0  0
    0.5984  -12.5063   18.9016 C   0  0  0  0  0  0  0  0  0  0  0  0
    2.0458   -8.2798   16.3048 S   0  0  0  0  0  0  0  0  0  0  0  0
    8.8465   -7.7935   16.9091 O   0  0  0  0  0  0  0  0  0  0  0  0
    1.0096  -10.5445   17.8700 C   0  0  0  0  0  0  0  0  0  0  0  0
    8.3076   -6.9833   16.3761 C   0  0  0  0  0  0  0  0  0  0  0  0
    5.7482   -7.1026   16.6991 He  0  0  0  0  0  0  0  0  0  0  0  0
    4.6073   -9.0333   16.8649 He  0  0  0  0  0  0  0  0  0  0  0  0
    8.8839   -4.3477   15.5895 He  0  0  0  0  0  0  0  0  0  0  0  0
   11.8891   -2.3844   18.5530 He  0  0  0  0  0  0  0  0  0  0  0  0
    6.6556   -8.5146   17.8269 He  0  0  0  0  0  0  0  0  0  0  0  0
    7.7167   -6.8968   15.4297 He  0  0  0  0  0  0  0  0  0  0  0  0
  1  2  2  0
  1 18  2  0
  1 19  1  0
  1 24  1  0
  2  8  4  0
  2 19  4  0
  2 27  1  0
  3  4  2  0
  3  8  4  0
  3 14  3  0
  3 20  4  0
  4  7  4  0
  4  9  4  0
  4 21  3  0
  4 27  1  0
  5 11  4  0
  5 18  3  0
  5 21  1  0
  5 28  2  0
  6 17  1  0
  6 26  1  0
  7  8  4  0
  7 17  1  0
  7 18  3  0
  7 20  4  0
  7 24  2  0
  8 15  2  0
  8 18  2  0
  8 23  3  0
  8 25  1  0
  8 28  1  0
  9 22  2  0
  9 23  4  0
  9 28  2  0
 10 11  2  0
 10 20  1  0
 10 22  4  0
 10 25  1  0
 11 24  2  0
 11 25  2  0
 11 28  4  0
 12 13  2  0
 12 16  3  0
 12 20  1  0
 12 26  3  0
 12 28  1  0
 13 20  1  0
 13 28  2  0
 14 26  3  0
 14 27  4  0
 15 23  1  0
 16 20  1  0
 16 24  4  0
 16 25  2  0
 16 26  1  0
 17 21  4  0
 18 24  4  0
 19 20  2  0
 20 21  4  0
 20 25  4  0
 20 26  1  0
 21 24  4  0
 21 25  4  0
 21 28  1  0
 22 28  3  0
 23 25  2  0
 24 27  2  0
 26 28  2  0
 27 28  4  0
M  END
$$$$

 Created by Python create_sdf_string function

 34 33  0  0  0  0  0  0  0  0999 V2000
    8.8086   -0.0549   25.3581 C   0  0  0  0  0  0  0  0  0  0  0  0
    9.1802   -1.1747   24.5988 N   0  0  0  0  0  0  0  0  0  0  0  0
   10.0089   -5.6876   19.0209 C   0  0  0  0  0  0  0  0  0  0  0  0
    2.5186  -10.8347   18.4677 C   0  0  0  0  0  0  0  0  0  0  0  0
   10.3367   -3.6225   17.2875 C   0  0  0  0  0  0  0  0  0  0  0  0
    7.1664   -8.6285   15.7383 C   0  0  0  0  0  0  0  0  0  0  0  0
    2.5663  -11.7999   19.5641 C   0  0  0  0  0  0  0  0  0  0  0  0
    5.4340   -7.3711   16.7359 C   0  0  0  0  0  0  0  0  0  0  0  0
   10.5841   -4.5750   19.4326 C   0  0  0  0  0  0  0  0  0  0  0  0
    3.5981  -10.0466   18.0913 C   0  0  0  0  0  0  0  0  0  0  0  0
    9.5557   -4.6524   16.8710 C   0  0  0  0  0  0  0  0  0  0  0  0
    4.7498   -8.4477   16.8908 C   0  0  0  0  0  0  0  0  0  0  0  0
    8.8553   -4.5727   15.8421 O   0  0  0  0  0  0  0  0  0  0  0  0
   10.8419   -3.4977   18.5916 C   0  0  0  0  0  0  0  0  0  0  0  0
    6.7618   -7.6662   18.2169 C   0  0  0  0  0  0  0  0  0  0  0  0
    5.4630   -9.3433   18.8562 O   0  0  0  0  0  0  0  0  0  0  0  0
    1.2778   -9.7356   16.7679 N   0  0  0  0  0  0  0  0  0  0  0  0
    9.4922    0.3142   26.4813 O   0  0  0  0  0  0  0  0  0  0  0  0
    8.8783   -6.9533   17.2201 C   0  0  0  0  0  0  0  0  0  0  0  0
   11.4245   -2.4389   18.9075 O   0  0  0  0  0  0  0  0  0  0  0  0
    5.8834   -8.9210   15.9279 C   0  0  0  0  0  0  0  0  0  0  0  0
    6.4388   -8.4883   17.5366 C   0  0  0  0  0  0  0  0  0  0  0  0
    7.4613   -6.9368   15.3062 C   0  0  0  0  0  0  0  0  0  0  0  0
    1.5158  -12.4217   19.8018 C   0  0  0  0  0  0  0  0  0  0  0  0
    7.6567    0.6865   24.9963 O   0  0  0  0  0  0  0  0  0  0  0  0
    6.7583   -6.8655   15.0081 C   0  0  0  0  0  0  0  0  0  0  0  0
    0.3229  -11.4904   18.0385 N   0  0  0  0  0  0  0  0  0  0  0  0
    9.4839   -5.7334   17.7182 C   0  0  0  0  0  0  0  0  0  0  0  0
    3.5107   -9.2549   17.2515 C   0  0  0  0  0  0  0  0  0  0  0  0
    0.3881  -12.3081   19.1094 C   0  0  0  0  0  0  0  0  0  0  0  0
    2.3219   -8.9521   16.5155 C   0  0  0  0  0  0  0  0  0  0  0  0
    8.8634   -8.1200   17.1319 O   0  0  0  0  0  0  0  0  0  0  0  0
    1.3416  -10.6708   17.7558 C   0  0  0  0  0  0  0  0  0  0  0  0
    8.0839   -6.5687   16.4491 C   0  0  0  0  0  0  0  0  0  0  0  0
  1  2  2  0
  1 18  1  0
  1 25  1  0
  3  9  4  0
  3 28  4  0
  4  7  4  0
  4 10  4  0
  4 33  4  0
  5 11  4  0
  5 14  4  0
  6 21  1  0
  6 23  1  0
  7 24  4  0
  8 12  1  0
  9 14  4  0
 10 29  4  0
 11 13  1  0
 11 28  4  0
 12 21  1  0
 12 29  1  0
 14 20  2  0
 15 22  1  0
 17 31  4  0
 17 33  4  0
 19 28  1  0
 19 32  1  0
 19 34  1  0
 23 26  1  0
 23 34  1  0
 24 30  4  0
 27 30  4  0
 27 33  4  0
 29 31  4  0
M  END
$$$$

 Created by Python create_sdf_string function

 34 62  0  0  0  0  0  0  0  0999 V2000
    8.6107   -0.2283   25.4003 C   0  0  0  0  0  0  0  0  0  0  0  0
    9.3382   -1.3665   24.8768 N   0  0  0  0  0  0  0  0  0  0  0  0
   10.5193   -5.5787   18.3458 C   0  0  0  0  0  0  0  0  0  0  0  0
    2.3782  -11.0265   18.6409 C   0  0  0  0  0  0  0  0  0  0  0  0
   10.2322   -4.1177   17.4724 C   0  0  0  0  0  0  0  0  0  0  0  0
    7.1302   -8.9747   15.5032 C   0  0  0  0  0  0  0  0  0  0  0  0
    5.5308   -8.2786   17.7201 S   0  0  0  0  0  0  0  0  0  0  0  0
    4.1471  -10.4281   17.6708 C   0  0  0  0  0  0  0  0  0  0  0  0
    9.7803   -3.9282   16.7364 C   0  0  0  0  0  0  0  0  0  0  0  0
    9.0242   -4.4286   16.2135 N   0  0  0  0  0  0  0  0  0  0  0  0
   10.8269   -3.9061   18.6081 C   0  0  0  0  0  0  0  0  0  0  0  0
    7.0317   -8.0198   18.2395 C   0  0  0  0  0  0  0  0  0  0  0  0
    4.8809   -9.1985   18.9018 O   0  0  0  0  0  0  0  0  0  0  0  0
    1.3539   -9.5180   16.9447 N   0  0  0  0  0  0  0  0  0  0  0  0
    9.5087    0.1132   26.7147 I   0  0  0  0  0  0  0  0  0  0  0  0
    5.4412   -8.3432   15.9613 C   0  0  0  0  0  0  0  0  0  0  0  0
    7.9803   -6.6194   13.6382 C   0  0  0  0  0  0  0  0  0  0  0  0
    8.1419    0.7702   24.8863 O   0  0  0  0  0  0  0  0  0  0  0  0
    6.5601   -8.9090   14.7379 C   0  0  0  0  0  0  0  0  0  0  0  0
    0.0901  -11.3924   17.8513 N   0  0  0  0  0  0  0  0  0  0  0  0
    9.3958   -6.0763   18.0903 C   0  0  0  0  0  0  0  0  0  0  0  0
    3.8361   -9.3037   16.8859 C   0  0  0  0  0  0  0  0  0  0  0  0
    0.7369  -12.6463   19.4824 C   0  0  0  0  0  0  0  0  0  0  0  0
    2.6807   -9.0039   16.4092 C   0  0  0  0  0  0  0  0  0  0  0  0
    9.0491   -8.5007   17.1825 O   0  0  0  0  0  0  0  0  0  0  0  0
    8.5280   -6.0958   16.2524 C   0  0  0  0  0  0  0  0  0  0  0  0
    2.3691  -11.7350   19.7770 He  0  0  0  0  0  0  0  0  0  0  0  0
   10.4489   -4.8978   19.2437 He  0  0  0  0  0  0  0  0  0  0  0  0
    5.0129   -7.1073   17.0035 He  0  0  0  0  0  0  0  0  0  0  0  0
    8.5645   -7.1844   17.3169 He  0  0  0  0  0  0  0  0  0  0  0  0
   11.0554   -2.2977   18.9540 He  0  0  0  0  0  0  0  0  0  0  0  0
    6.9161   -8.7043   17.1123 He  0  0  0  0  0  0  0  0  0  0  0  0
    1.7450  -12.6137   19.4559 He  0  0  0  0  0  0  0  0  0  0  0  0
    1.0904  -10.9216   17.7833 He  0  0  0  0  0  0  0  0  0  0  0  0
  1  5  1  0
  1 15  2  0
  1 18  1  0
  2 12  3  0
  2 22  2  0
  2 24  1  0
  3  8  3  0
  3  9  1  0
  3 17  3  0
  3 21  4  0
  3 22  2  0
  4 25  1  0
  4 26  1  0
  5  8  1  0
  5  9  4  0
  5 17  2  0
  5 19  3  0
  5 22  4  0
  5 26  3  0
  6 16  1  0
  6 18  4  0
  7 11  3  0
  7 14  1  0
  7 21  1  0
  8 17  3  0
  8 18  1  0
  8 21  2  0
  8 22  4  0
  8 24  3  0
  8 25  1  0
  9 10  1  0
  9 17  4  0
  9 21  4  0
 10 11  1  0
 10 12  4  0
 10 17  1  0
 10 26  2  0
 11 17  2  0
 11 19  1  0
 12 17  1  0
 12 19  2  0
 13 23  3  0
 14 19  4  0
 14 20  4  0
 14 24  4  0
 14 26  4  0
 15 19  2  0
 15 20  1  0
 16 26  2  0
 17 19  1  0
 17 22  3  0
 17 23  1  0
 17 24  3  0
 17 25  4  0
 17 26  4  0
 18 23  4  0
 19 23  1  0
 19 26  1  0
 21 25  3  0
 22 24  4  0
 23 26  4  0
 25 26  1  0
M  END
$$$$

 Created by Python create_sdf_string function

 34 37  0  0  0  0  0  0  0  0999 V2000
    8.9011   -0.1496   25.4593 C   0  0  0  0  0  0  0  0  0  0  0  0
    9.1822   -1.4431   24.7439 N   0  0  0  0  0  0  0  0  0  0  0  0
   10.1938   -5.9599   18.8951 C   0  0  0  0  0  0  0  0  0  0  0  0
    2.5616  -10.9952   18.4424 C   0  0  0  0  0  0  0  0  0  0  0  0
   10.2262   -3.6541   17.5203 C   0  0  0  0  0  0  0  0  0  0  0  0
    6.9457   -8.7264   15.7279 C   0  0  0  0  0  0  0  0  0  0  0  0
    2.5776  -11.9710   19.5554 C   0  0  0  0  0  0  0  0  0  0  0  0
    5.0668   -8.5321   17.4375 S   0  0  0  0  0  0  0  0  0  0  0  0
   10.7957   -4.8625   19.4384 C   0  0  0  0  0  0  0  0  0  0  0  0
    3.6883  -10.3308   18.1203 C   0  0  0  0  0  0  0  0  0  0  0  0
    9.6310   -4.6321   17.0039 C   0  0  0  0  0  0  0  0  0  0  0  0
    4.9365   -7.3004   17.0022 O   0  0  0  0  0  0  0  0  0  0  0  0
    8.8942   -4.6424   15.8510 N   0  0  0  0  0  0  0  0  0  0  0  0
   10.8409   -3.6208   18.7509 C   0  0  0  0  0  0  0  0  0  0  0  0
    6.9961   -8.0421   18.1987 C   0  0  0  0  0  0  0  0  0  0  0  0
    5.4150   -9.0500   19.1289 O   0  0  0  0  0  0  0  0  0  0  0  0
    1.3512   -9.8236   16.7848 N   0  0  0  0  0  0  0  0  0  0  0  0
    9.4134    0.0680   26.6719 O   0  0  0  0  0  0  0  0  0  0  0  0
    8.8729   -6.8891   17.0902 C   0  0  0  0  0  0  0  0  0  0  0  0
   11.3426   -2.5510   19.1834 O   0  0  0  0  0  0  0  0  0  0  0  0
    5.6074   -8.7107   15.8473 C   0  0  0  0  0  0  0  0  0  0  0  0
    7.4276   -8.3742   17.1058 C   0  0  0  0  0  0  0  0  0  0  0  0
    7.6348   -6.9027   14.8819 C   0  0  0  0  0  0  0  0  0  0  0  0
    1.5554  -12.5861   19.8554 C   0  0  0  0  0  0  0  0  0  0  0  0
    8.0332    0.7740   24.8450 O   0  0  0  0  0  0  0  0  0  0  0  0
    7.4421   -8.4961   14.9602 C   0  0  0  0  0  0  0  0  0  0  0  0
    0.3173  -11.5583   18.1538 N   0  0  0  0  0  0  0  0  0  0  0  0
    9.5832   -5.8644   17.7079 C   0  0  0  0  0  0  0  0  0  0  0  0
    3.6648   -9.4077   17.3556 C   0  0  0  0  0  0  0  0  0  0  0  0
    0.4562  -12.4479   19.1688 C   0  0  0  0  0  0  0  0  0  0  0  0
    2.5030   -9.1036   16.5627 C   0  0  0  0  0  0  0  0  0  0  0  0
    8.9530   -8.1972   17.2308 C   0  0  0  0  0  0  0  0  0  0  0  0
    1.3711  -10.8039   17.8425 C   0  0  0  0  0  0  0  0  0  0  0  0
    8.3530   -6.1344   15.9065 C   0  0  0  0  0  0  0  0  0  0  0  0
  1  2  1  0
  1 18  2  0
  1 25  1  0
  3  9  4  0
  3 28  4  0
  4  7  4  0
  4 10  4  0
  4 33  4  0
  5 11  4  0
  5 14  4  0
  6 21  1  0
  6 22  1  0
  6 26  1  0
  7 24  4  0
  8 12  1  0
  8 16  2  0
  8 21  1  0
  8 29  1  0
  9 14  4  0
 10 29  4  0
 11 13  1  0
 11 28  4  0
 13 34  1  0
 14 20  2  0
 15 22  1  0
 17 31  4  0
 17 33  4  0
 19 28  1  0
 19 32  1  0
 19 34  1  0
 22 32  1  0
 23 26  1  0
 23 34  1  0
 24 30  4  0
 27 30  4  0
 27 33  4  0
 29 31  4  0
M  END
$$$$

 Created by Python create_sdf_string function

 34 80  0  0  0  0  0  0  0  0999 V2000
    9.0272    0.3008   25.4801 C   0  0  0  0  0  0  0  0  0  0  0  0
    8.9780   -1.8586   24.3908 N   0  0  0  0  0  0  0  0  0  0  0  0
   10.4019   -5.8054   18.9825 C   0  0  0  0  0  0  0  0  0  0  0  0
    2.4237  -11.1669   18.1206 C   0  0  0  0  0  0  0  0  0  0  0  0
    9.9915   -3.3617   17.1326 C   0  0  0  0  0  0  0  0  0  0  0  0
    7.1627   -8.7780   15.4159 C   0  0  0  0  0  0  0  0  0  0  0  0
    3.8079   -6.4928   17.8158 I   0  0  0  0  0  0  0  0  0  0  0  0
   10.5979   -5.0920   19.4855 I   0  0  0  0  0  0  0  0  0  0  0  0
    3.8307  -10.0667   17.8365 C   0  0  0  0  0  0  0  0  0  0  0  0
    9.1733   -4.8123   16.8283 C   0  0  0  0  0  0  0  0  0  0  0  0
    8.9100   -5.0441   16.0007 O   0  0  0  0  0  0  0  0  0  0  0  0
   10.4197   -3.8117   18.5835 C   0  0  0  0  0  0  0  0  0  0  0  0
    7.0593   -7.6751   18.3575 C   0  0  0  0  0  0  0  0  0  0  0  0
    5.5646   -8.6104   18.7591 O   0  0  0  0  0  0  0  0  0  0  0  0
    1.3750   -9.7784   17.0593 N   0  0  0  0  0  0  0  0  0  0  0  0
    9.5575    0.1556   26.9175 C   0  0  0  0  0  0  0  0  0  0  0  0
    8.8815   -6.6895   17.2411 P   0  0  0  0  0  0  0  0  0  0  0  0
   11.1595   -2.8516   19.1095 O   0  0  0  0  0  0  0  0  0  0  0  0
    5.3592   -8.6396   16.1000 C   0  0  0  0  0  0  0  0  0  0  0  0
    6.9433   -7.2540   17.5279 C   0  0  0  0  0  0  0  0  0  0  0  0
    7.5918   -6.3222   15.3641 O   0  0  0  0  0  0  0  0  0  0  0  0
    1.8320  -12.5543   19.9095 C   0  0  0  0  0  0  0  0  0  0  0  0
    7.5350   -8.5440   15.4797 C   0  0  0  0  0  0  0  0  0  0  0  0
    0.2815  -11.1806   18.1328 N   0  0  0  0  0  0  0  0  0  0  0  0
    9.3435   -5.6897   17.5830 N   0  0  0  0  0  0  0  0  0  0  0  0
    4.0919   -9.4591   17.4857 C   0  0  0  0  0  0  0  0  0  0  0  0
    0.4770  -12.6969   18.8032 C   0  0  0  0  0  0  0  0  0  0  0  0
    8.9396   -8.0432   17.8430 C   0  0  0  0  0  0  0  0  0  0  0  0
    1.5010  -11.2404   18.3678 C   0  0  0  0  0  0  0  0  0  0  0  0
    2.0501  -11.9669   19.3655 He  0  0  0  0  0  0  0  0  0  0  0  0
    5.8979   -7.4871   17.4722 He  0  0  0  0  0  0  0  0  0  0  0  0
    7.9749    0.8730   24.2112 He  0  0  0  0  0  0  0  0  0  0  0  0
    2.1389   -8.8952   15.9885 He  0  0  0  0  0  0  0  0  0  0  0  0
    8.8465   -5.3130   16.0547 He  0  0  0  0  0  0  0  0  0  0  0  0
  1  2  1  0
  1  5  4  0
  1  6  2  0
  1  9  3  0
  1 15  4  0
  1 16  2  0
  1 23  3  0
  1 27  1  0
  2 12  3  0
  2 14  3  0
  2 20  2  0
  2 24  4  0
  2 28  3  0
  3  8  4  0
  3 11  2  0
  3 17  4  0
  3 23  3  0
  3 29  4  0
  4  9  4  0
  4 13  1  0
  4 18  4  0
  4 19  1  0
  4 21  3  0
  4 22  1  0
  4 29  4  0
  5 12  4  0
  5 21  1  0
  5 23  3  0
  5 24  3  0
  6  7  2  0
  6 11  2  0
  6 13  2  0
  6 14  3  0
  6 15  3  0
  6 18  1  0
  6 19  1  0
  7 12  2  0
  7 13  2  0
  7 14  2  0
  7 19  2  0
  7 20  3  0
  7 25  3  0
  7 27  1  0
  8 12  4  0
  8 17  1  0
  8 25  2  0
  8 28  1  0
  9 20  2  0
  9 21  3  0
  9 25  4  0
  9 26  4  0
  9 29  3  0
 10 11  1  0
 10 17  3  0
 10 20  3  0
 10 29  4  0
 11 15  3  0
 11 17  2  0
 11 19  3  0
 12 18  2  0
 13 15  2  0
 13 18  2  0
 13 23  1  0
 14 15  1  0
 15 29  4  0
 16 17  3  0
 16 18  3  0
 16 20  2  0
 17 28  1  0
 18 22  4  0
 18 23  4  0
 19 23  1  0
 20 27  1  0
 21 23  4  0
 21 24  3  0
 23 25  1  0
 23 26  4  0
 24 27  4  0
 24 29  1  0
 27 28  2  0
M  END
$$$$

 Created by Python create_sdf_string function

 34 37  0  0  0  0  0  0  0  0999 V2000
    8.9741   -0.1744   25.2791 C   0  0  0  0  0  0  0  0  0  0  0  0
    9.1642   -1.4690   24.6180 N   0  0  0  0  0  0  0  0  0  0  0  0
   10.1881   -6.0535   19.1049 C   0  0  0  0  0  0  0  0  0  0  0  0
    2.5220  -11.0021   18.4869 C   0  0  0  0  0  0  0  0  0  0  0  0
   10.1812   -3.5993   17.4259 C   0  0  0  0  0  0  0  0  0  0  0  0
    6.9370   -8.8510   15.6807 C   0  0  0  0  0  0  0  0  0  0  0  0
    2.5266  -12.0492   19.4574 C   0  0  0  0  0  0  0  0  0  0  0  0
    4.3230   -7.7096   17.1163 O   0  0  0  0  0  0  0  0  0  0  0  0
   10.6654   -4.8199   19.3554 C   0  0  0  0  0  0  0  0  0  0  0  0
    3.6739  -10.1936   18.1783 C   0  0  0  0  0  0  0  0  0  0  0  0
    9.4137   -4.8104   16.8563 C   0  0  0  0  0  0  0  0  0  0  0  0
    5.4324   -7.9328   17.4122 C   0  0  0  0  0  0  0  0  0  0  0  0
    8.5653   -4.4888   15.5161 O   0  0  0  0  0  0  0  0  0  0  0  0
   10.6936   -3.6748   18.6501 C   0  0  0  0  0  0  0  0  0  0  0  0
    7.3209   -7.8165   17.8320 C   0  0  0  0  0  0  0  0  0  0  0  0
    5.7435   -8.5289   18.7973 O   0  0  0  0  0  0  0  0  0  0  0  0
    1.3187   -9.8311   16.8569 N   0  0  0  0  0  0  0  0  0  0  0  0
    9.4123    0.0170   26.4711 O   0  0  0  0  0  0  0  0  0  0  0  0
    9.3739   -6.7016   17.9873 C   0  0  0  0  0  0  0  0  0  0  0  0
   11.2243   -2.6513   19.1392 O   0  0  0  0  0  0  0  0  0  0  0  0
    5.6427   -8.7410   15.8741 C   0  0  0  0  0  0  0  0  0  0  0  0
    6.7793   -7.0249   17.3090 C   0  0  0  0  0  0  0  0  0  0  0  0
    7.3555   -6.4683   15.6776 O   0  0  0  0  0  0  0  0  0  0  0  0
    1.4242  -12.7047   19.6856 C   0  0  0  0  0  0  0  0  0  0  0  0
    8.3124    0.8829   24.6060 C   0  0  0  0  0  0  0  0  0  0  0  0
    7.5068   -8.2408   15.9388 C   0  0  0  0  0  0  0  0  0  0  0  0
    0.2533  -11.5663   18.0765 N   0  0  0  0  0  0  0  0  0  0  0  0
    9.1959   -5.8084   17.2074 N   0  0  0  0  0  0  0  0  0  0  0  0
    3.4575   -9.2280   17.3226 C   0  0  0  0  0  0  0  0  0  0  0  0
    0.3299  -12.4684   19.0044 C   0  0  0  0  0  0  0  0  0  0  0  0
    2.3909   -9.0497   16.5764 C   0  0  0  0  0  0  0  0  0  0  0  0
    8.9608   -7.9476   17.8665 C   0  0  0  0  0  0  0  0  0  0  0  0
    1.3495  -10.8150   17.7947 C   0  0  0  0  0  0  0  0  0  0  0  0
    8.5460   -5.4597   16.0179 C   0  0  0  0  0  0  0  0  0  0  0  0
  1  2  1  0
  1 18  2  0
  1 25  1  0
  3  9  4  0
  3 19  4  0
  4  7  4  0
  4 10  4  0
  4 33  4  0
  5 11  4  0
  5 14  4  0
  6 21  1  0
  6 26  1  0
  7 24  4  0
  8 12  1  0
  8 29  1  0
  9 14  4  0
 10 29  4  0
 11 28  4  0
 12 16  1  0
 12 21  1  0
 12 22  1  0
 13 34  2  0
 14 20  2  0
 15 22  1  0
 15 26  1  0
 15 32  1  0
 17 31  4  0
 17 33  4  0
 19 28  4  0
 19 32  1  0
 22 23  1  0
 23 34  1  0
 24 30  4  0
 27 30  4  0
 27 33  4  0
 28 34  1  0
 29 31  4  0
M  END
$$$$

 Created by Python create_sdf_string function

 34 53  0  0  0  0  0  0  0  0999 V2000
    9.1823   -0.3392   25.1260 I   0  0  0  0  0  0  0  0  0  0  0  0
    9.0525   -1.4142   24.5687 N   0  0  0  0  0  0  0  0  0  0  0  0
   10.4429   -5.9717   18.9567 C   0  0  0  0  0  0  0  0  0  0  0  0
   10.2371   -3.5082   17.0510 C   0  0  0  0  0  0  0  0  0  0  0  0
    4.3478   -7.4523   17.4098 O   0  0  0  0  0  0  0  0  0  0  0  0
   11.1659   -5.0542   19.5663 C   0  0  0  0  0  0  0  0  0  0  0  0
    3.5202  -10.3482   17.9879 C   0  0  0  0  0  0  0  0  0  0  0  0
    9.2895   -5.1309   16.7739 Cl  0  0  0  0  0  0  0  0  0  0  0  0
    6.1391   -7.6034   17.6621 C   0  0  0  0  0  0  0  0  0  0  0  0
    8.3294   -4.7984   15.3083 O   0  0  0  0  0  0  0  0  0  0  0  0
   10.8019   -3.7154   18.5829 C   0  0  0  0  0  0  0  0  0  0  0  0
    7.6266   -7.8917   17.8050 C   0  0  0  0  0  0  0  0  0  0  0  0
    5.7206   -8.1952   18.7951 O   0  0  0  0  0  0  0  0  0  0  0  0
    1.6510   -9.6150   17.2313 F   0  0  0  0  0  0  0  0  0  0  0  0
    9.5295   -6.5030   18.0496 C   0  0  0  0  0  0  0  0  0  0  0  0
   11.0595   -2.9246   19.2452 O   0  0  0  0  0  0  0  0  0  0  0  0
    1.8166  -12.7827   20.0914 C   0  0  0  0  0  0  0  0  0  0  0  0
    8.3776    0.8234   24.6432 C   0  0  0  0  0  0  0  0  0  0  0  0
    0.2283  -11.5155   18.2410 N   0  0  0  0  0  0  0  0  0  0  0  0
    9.4115   -6.3917   17.0689 N   0  0  0  0  0  0  0  0  0  0  0  0
    3.3807   -9.3737   17.4511 O   0  0  0  0  0  0  0  0  0  0  0  0
    0.1402  -12.6130   18.8194 C   0  0  0  0  0  0  0  0  0  0  0  0
    2.7045   -8.8537   16.8108 Cl  0  0  0  0  0  0  0  0  0  0  0  0
    8.9589   -8.1190   18.1121 C   0  0  0  0  0  0  0  0  0  0  0  0
    0.9669  -10.7796   17.8065 C   0  0  0  0  0  0  0  0  0  0  0  0
    7.9069   -5.6159   16.5398 N   0  0  0  0  0  0  0  0  0  0  0  0
    2.6189  -11.4828   18.1833 He  0  0  0  0  0  0  0  0  0  0  0  0
    6.9963   -8.7894   15.3135 He  0  0  0  0  0  0  0  0  0  0  0  0
    2.7966  -12.3025   19.2650 He  0  0  0  0  0  0  0  0  0  0  0  0
    9.5208   -0.1677   26.6150 He  0  0  0  0  0  0  0  0  0  0  0  0
    5.4068   -8.9015   15.8321 He  0  0  0  0  0  0  0  0  0  0  0  0
    6.2234   -6.2532   17.9385 He  0  0  0  0  0  0  0  0  0  0  0  0
    7.4868   -7.0587   16.0557 He  0  0  0  0  0  0  0  0  0  0  0  0
    7.5122   -7.4351   16.5879 He  0  0  0  0  0  0  0  0  0  0  0  0
  1 18  1  0
  1 24  2  0
  2  7  4  0
  3  6  4  0
  3 15  4  0
  3 20  2  0
  4 11  4  0
  5 13  1  0
  5 16  1  0
  5 19  4  0
  6 11  3  0
  6 26  2  0
  7 16  2  0
  7 21  4  0
  8 13  1  0
  8 20  4  0
  8 23  2  0
  9 10  4  0
  9 11  4  0
  9 13  3  0
  9 15  4  0
  9 17  1  0
  9 20  2  0
  9 23  4  0
  9 24  3  0
 10 22  1  0
 10 25  1  0
 12 13  2  0
 12 17  2  0
 13 23  4  0
 14 23  4  0
 14 25  4  0
 14 26  2  0
 15 16  3  0
 15 20  4  0
 15 22  2  0
 15 24  1  0
 16 26  2  0
 17 20  3  0
 17 21  4  0
 17 22  1  0
 18 19  2  0
 18 22  1  0
 18 25  1  0
 18 26  2  0
 19 21  2  0
 19 22  4  0
 19 25  4  0
 21 23  4  0
 22 23  4  0
 23 24  1  0
 24 26  1  0
 25 26  2  0
M  END
$$$$

 Created by Python create_sdf_string function

 34 35  0  0  0  0  0  0  0  0999 V2000
    9.0883   -0.3679   25.1169 C   0  0  0  0  0  0  0  0  0  0  0  0
    9.2120   -1.5412   24.4069 N   0  0  0  0  0  0  0  0  0  0  0  0
   10.4751   -6.1967   19.0776 C   0  0  0  0  0  0  0  0  0  0  0  0
    2.5518  -11.1567   18.4938 C   0  0  0  0  0  0  0  0  0  0  0  0
   10.2680   -3.7425   17.3987 C   0  0  0  0  0  0  0  0  0  0  0  0
    6.8282   -8.7657   15.4293 C   0  0  0  0  0  0  0  0  0  0  0  0
    2.6627  -12.2423   19.3922 C   0  0  0  0  0  0  0  0  0  0  0  0
    4.4372   -7.8798   17.4232 O   0  0  0  0  0  0  0  0  0  0  0  0
   10.9516   -5.0021   19.3741 C   0  0  0  0  0  0  0  0  0  0  0  0
    3.6952  -10.3657   18.1684 C   0  0  0  0  0  0  0  0  0  0  0  0
    9.4720   -4.7685   16.8218 C   0  0  0  0  0  0  0  0  0  0  0  0
    5.4853   -8.1962   17.2768 C   0  0  0  0  0  0  0  0  0  0  0  0
    8.2677   -4.6779   15.5226 O   0  0  0  0  0  0  0  0  0  0  0  0
   10.8538   -3.7896   18.6495 C   0  0  0  0  0  0  0  0  0  0  0  0
    7.7016   -8.1673   17.7046 C   0  0  0  0  0  0  0  0  0  0  0  0
    5.7752   -8.3435   18.7694 O   0  0  0  0  0  0  0  0  0  0  0  0
    1.2873   -9.8009   17.0555 C   0  0  0  0  0  0  0  0  0  0  0  0
    9.5341   -0.2940   26.4963 C   0  0  0  0  0  0  0  0  0  0  0  0
    9.6283   -6.6107   18.1645 C   0  0  0  0  0  0  0  0  0  0  0  0
   11.3147   -2.6495   19.0590 O   0  0  0  0  0  0  0  0  0  0  0  0
    5.5643   -8.9293   15.7408 C   0  0  0  0  0  0  0  0  0  0  0  0
    6.2861   -6.7972   17.4019 C   0  0  0  0  0  0  0  0  0  0  0  0
    7.2310   -6.8570   16.1489 C   0  0  0  0  0  0  0  0  0  0  0  0
    1.5469  -12.9051   19.6537 C   0  0  0  0  0  0  0  0  0  0  0  0
    8.4233    0.9061   24.6529 C   0  0  0  0  0  0  0  0  0  0  0  0
    7.5950   -8.2472   16.4865 C   0  0  0  0  0  0  0  0  0  0  0  0
    0.2602  -11.6154   18.2441 N   0  0  0  0  0  0  0  0  0  0  0  0
    9.2275   -5.8206   17.0916 N   0  0  0  0  0  0  0  0  0  0  0  0
    3.4358   -9.3059   17.4345 C   0  0  0  0  0  0  0  0  0  0  0  0
    0.3766  -12.5630   19.0918 C   0  0  0  0  0  0  0  0  0  0  0  0
    2.3358   -8.9832   16.8141 C   0  0  0  0  0  0  0  0  0  0  0  0
    9.0450   -7.9126   18.1681 C   0  0  0  0  0  0  0  0  0  0  0  0
    1.3474  -10.8824   17.9159 C   0  0  0  0  0  0  0  0  0  0  0  0
    8.0785   -5.9460   16.1434 C   0  0  0  0  0  0  0  0  0  0  0  0
  1  2  1  0
  1 18  1  0
  1 25  1  0
  3  9  4  0
  3 19  4  0
  4  7  4  0
  4 10  4  0
  4 33  4  0
  5 11  4  0
  5 14  4  0
  6 21  1  0
  6 26  1  0
  7 24  4  0
  8 12  1  0
  8 29  1  0
  9 14  4  0
 10 29  4  0
 11 28  4  0
 12 21  1  0
 13 34  2  0
 14 20  2  0
 15 26  1  0
 15 32  1  0
 17 31  4  0
 17 33  4  0
 19 28  4  0
 19 32  1  0
 22 23  1  0
 23 26  1  0
 23 34  1  0
 24 30  4  0
 27 30  4  0
 27 33  4  0
 28 34  1  0
 29 31  4  0
M  END
$$$$

 Created by Python create_sdf_string function

 34 86  0  0  0  0  0  0  0  0999 V2000
    9.3604   -0.4602   25.3908 C   0  0  0  0  0  0  0  0  0  0  0  0
    8.9590   -1.2525   24.6982 N   0  0  0  0  0  0  0  0  0  0  0  0
    2.1435  -11.1681   18.8493 C   0  0  0  0  0  0  0  0  0  0  0  0
   10.3428   -3.3829   17.2696 C   0  0  0  0  0  0  0  0  0  0  0  0
    7.0510   -8.5647   15.5484 C   0  0  0  0  0  0  0  0  0  0  0  0
    4.6177   -8.1629   18.0574 C   0  0  0  0  0  0  0  0  0  0  0  0
   11.1889   -4.6706   19.5650 C   0  0  0  0  0  0  0  0  0  0  0  0
    3.5971  -10.2595   18.0112 C   0  0  0  0  0  0  0  0  0  0  0  0
    9.6523   -4.4042   17.0050 C   0  0  0  0  0  0  0  0  0  0  0  0
    8.4927   -4.7197   15.3160 N   0  0  0  0  0  0  0  0  0  0  0  0
   10.7673   -3.6344   18.5386 C   0  0  0  0  0  0  0  0  0  0  0  0
    7.1745   -8.0725   17.9839 C   0  0  0  0  0  0  0  0  0  0  0  0
    5.4775   -8.2764   18.5740 O   0  0  0  0  0  0  0  0  0  0  0  0
    1.1402   -9.9579   17.0942 C   0  0  0  0  0  0  0  0  0  0  0  0
    9.4199   -0.2955   26.7860 C   0  0  0  0  0  0  0  0  0  0  0  0
    9.3090   -6.1870   18.4648 C   0  0  0  0  0  0  0  0  0  0  0  0
    6.6889   -6.5516   15.4328 C   0  0  0  0  0  0  0  0  0  0  0  0
    1.3036  -12.8990   19.9227 C   0  0  0  0  0  0  0  0  0  0  0  0
    8.3320    0.5431   24.2138 C   0  0  0  0  0  0  0  0  0  0  0  0
    7.7294   -9.2322   17.5118 C   0  0  0  0  0  0  0  0  0  0  0  0
    0.3184  -11.8717   18.0980 N   0  0  0  0  0  0  0  0  0  0  0  0
    9.0312   -6.0330   16.8855 N   0  0  0  0  0  0  0  0  0  0  0  0
    3.7831   -9.2300   17.7034 C   0  0  0  0  0  0  0  0  0  0  0  0
    0.0928  -12.2328   18.9251 C   0  0  0  0  0  0  0  0  0  0  0  0
    2.7484   -8.7998   16.6490 C   0  0  0  0  0  0  0  0  0  0  0  0
    9.5030   -7.9138   18.1481 N   0  0  0  0  0  0  0  0  0  0  0  0
    1.2509  -10.7504   17.5746 F   0  0  0  0  0  0  0  0  0  0  0  0
    8.0518   -6.5854   16.3249 C   0  0  0  0  0  0  0  0  0  0  0  0
   10.5887   -6.2878   19.1011 He  0  0  0  0  0  0  0  0  0  0  0  0
    2.7596  -11.9749   19.3636 He  0  0  0  0  0  0  0  0  0  0  0  0
    4.0958   -8.1002   17.2593 He  0  0  0  0  0  0  0  0  0  0  0  0
   11.3178   -2.8098   18.9799 He  0  0  0  0  0  0  0  0  0  0  0  0
    5.4180   -9.3935   15.2193 He  0  0  0  0  0  0  0  0  0  0  0  0
    6.5368   -6.8036   17.8594 He  0  0  0  0  0  0  0  0  0  0  0  0
  1  2  1  0
  1  8  3  0
  1 15  1  0
  1 19  1  0
  1 20  4  0
  2  3  2  0
  2  4  2  0
  2  6  1  0
  2  8  3  0
  2 12  4  0
  2 17  4  0
  2 26  1  0
  3  8  4  0
  3 17  4  0
  3 18  1  0
  3 27  4  0
  4  6  4  0
  4  7  4  0
  4  8  2  0
  4  9  4  0
  4 10  4  0
  4 11  4  0
  4 28  2  0
  5 12  2  0
  5 16  3  0
  5 17  2  0
  5 20  3  0
  5 27  4  0
  6 11  4  0
  6 16  1  0
  6 17  1  0
  6 18  4  0
  6 21  2  0
  6 22  2  0
  6 24  2  0
  6 25  3  0
  6 26  1  0
  7  9  1  0
  7 11  4  0
  7 20  2  0
  7 23  3  0
  8 11  1  0
  8 23  4  0
  8 25  1  0
  9 10  3  0
  9 19  2  0
  9 22  4  0
  9 24  1  0
  9 27  4  0
  9 28  3  0
 10 19  2  0
 10 20  2  0
 10 22  2  0
 10 28  2  0
 11 28  4  0
 12 26  1  0
 13 20  1  0
 13 23  2  0
 14 25  4  0
 14 27  4  0
 16 22  4  0
 16 26  1  0
 17 19  4  0
 17 20  4  0
 17 21  1  0
 17 22  2  0
 17 24  2  0
 17 28  1  0
 18 22  3  0
 18 24  4  0
 18 28  3  0
 19 21  2  0
 20 21  3  0
 20 22  2  0
 20 23  1  0
 20 25  4  0
 20 26  1  0
 20 28  1  0
 21 24  4  0
 21 27  4  0
 22 28  3  0
 23 25  1  0
 24 27  2  0
 24 28  3  0
 26 28  1  0
 27 28  2  0
M  END
$$$$

 Created by Python create_sdf_string function

 34 37  0  0  0  0  0  0  0  0999 V2000
    9.2213   -0.3868   25.2525 C   0  0  0  0  0  0  0  0  0  0  0  0
    9.2848   -1.6575   24.6689 C   0  0  0  0  0  0  0  0  0  0  0  0
   10.3935   -6.0054   19.1403 C   0  0  0  0  0  0  0  0  0  0  0  0
    2.4103  -11.0996   18.5628 C   0  0  0  0  0  0  0  0  0  0  0  0
   10.2113   -3.7255   17.3673 C   0  0  0  0  0  0  0  0  0  0  0  0
    6.8378   -8.5714   15.4335 C   0  0  0  0  0  0  0  0  0  0  0  0
    2.4082  -12.0894   19.6029 C   0  0  0  0  0  0  0  0  0  0  0  0
    5.2456   -8.3074   17.5354 C   0  0  0  0  0  0  0  0  0  0  0  0
   10.9504   -4.8235   19.3435 C   0  0  0  0  0  0  0  0  0  0  0  0
    3.5472  -10.3538   18.3290 C   0  0  0  0  0  0  0  0  0  0  0  0
    9.4424   -4.6824   16.8088 C   0  0  0  0  0  0  0  0  0  0  0  0
    4.7511   -8.4209   16.8411 N   0  0  0  0  0  0  0  0  0  0  0  0
    8.5893   -4.7103   15.7507 O   0  0  0  0  0  0  0  0  0  0  0  0
   10.8717   -3.7097   18.5621 C   0  0  0  0  0  0  0  0  0  0  0  0
    7.6694   -8.1778   17.8633 C   0  0  0  0  0  0  0  0  0  0  0  0
    5.6021   -8.5873   19.0102 O   0  0  0  0  0  0  0  0  0  0  0  0
    1.2817   -9.8940   16.8029 C   0  0  0  0  0  0  0  0  0  0  0  0
    9.4005   -0.2882   26.6797 C   0  0  0  0  0  0  0  0  0  0  0  0
    9.5933   -6.4328   18.1592 C   0  0  0  0  0  0  0  0  0  0  0  0
   11.3471   -2.6462   18.9112 O   0  0  0  0  0  0  0  0  0  0  0  0
    5.5223   -9.0003   15.4450 C   0  0  0  0  0  0  0  0  0  0  0  0
    6.3734   -7.0779   17.5342 C   0  0  0  0  0  0  0  0  0  0  0  0
    7.0670   -6.9172   15.5488 C   0  0  0  0  0  0  0  0  0  0  0  0
    1.2701  -12.7887   19.7746 C   0  0  0  0  0  0  0  0  0  0  0  0
    8.6005    0.7213   24.5886 C   0  0  0  0  0  0  0  0  0  0  0  0
    7.3246   -8.5914   16.9774 C   0  0  0  0  0  0  0  0  0  0  0  0
    0.1776  -11.6364   18.0693 N   0  0  0  0  0  0  0  0  0  0  0  0
    9.1327   -5.8114   17.0992 N   0  0  0  0  0  0  0  0  0  0  0  0
    3.4528   -9.4184   17.4044 C   0  0  0  0  0  0  0  0  0  0  0  0
    0.2192  -12.5621   19.0084 C   0  0  0  0  0  0  0  0  0  0  0  0
    2.3279   -9.1093   16.6452 C   0  0  0  0  0  0  0  0  0  0  0  0
    8.9627   -7.8081   18.2003 C   0  0  0  0  0  0  0  0  0  0  0  0
    1.2898  -10.8835   17.8177 C   0  0  0  0  0  0  0  0  0  0  0  0
    8.1455   -6.0910   16.1274 C   0  0  0  0  0  0  0  0  0  0  0  0
  1  2  1  0
  1 18  1  0
  1 25  1  0
  3  9  4  0
  3 19  4  0
  4  7  4  0
  4 10  4  0
  4 33  4  0
  5 11  4  0
  5 14  4  0
  6 21  1  0
  6 23  1  0
  6 26  1  0
  7 24  4  0
  8 12  1  0
  8 16  2  0
  9 14  4  0
 10 29  4  0
 11 13  2  0
 11 28  4  0
 12 21  1  0
 12 29  1  0
 13 34  2  0
 14 20  2  0
 15 22  1  0
 15 26  1  0
 15 32  1  0
 17 31  4  0
 17 33  4  0
 19 28  4  0
 19 32  1  0
 23 34  1  0
 24 30  4  0
 27 30  4  0
 27 33  4  0
 28 34  1  0
 29 31  4  0
M  END
$$$$

 Created by Python create_sdf_string function

 34 82  0  0  0  0  0  0  0  0999 V2000
    9.1537   -0.3868   25.4051 C   0  0  0  0  0  0  0  0  0  0  0  0
    9.3960   -1.4063   24.9151 C   0  0  0  0  0  0  0  0  0  0  0  0
    2.4607  -10.9988   18.4655 C   0  0  0  0  0  0  0  0  0  0  0  0
    9.6905   -3.3492   16.8613 C   0  0  0  0  0  0  0  0  0  0  0  0
    6.9516   -8.6272   15.3031 C   0  0  0  0  0  0  0  0  0  0  0  0
    2.6993  -12.0860   19.8323 O   0  0  0  0  0  0  0  0  0  0  0  0
    5.2290   -8.1935   17.5676 P   0  0  0  0  0  0  0  0  0  0  0  0
   11.0540   -4.6187   19.5549 B   0  0  0  0  0  0  0  0  0  0  0  0
    9.4129   -4.7174   16.4335 C   0  0  0  0  0  0  0  0  0  0  0  0
    4.5921   -8.2802   16.6079 C   0  0  0  0  0  0  0  0  0  0  0  0
    8.9962   -4.6764   15.6152 O   0  0  0  0  0  0  0  0  0  0  0  0
   10.9469   -3.8177   18.4210 C   0  0  0  0  0  0  0  0  0  0  0  0
    7.8181   -8.2069   17.9335 C   0  0  0  0  0  0  0  0  0  0  0  0
    5.9937   -8.5832   18.8864 O   0  0  0  0  0  0  0  0  0  0  0  0
    1.2412   -9.8086   16.4974 C   0  0  0  0  0  0  0  0  0  0  0  0
    9.2350   -0.1061   27.0255 S   0  0  0  0  0  0  0  0  0  0  0  0
    9.4778   -6.5740   18.2812 C   0  0  0  0  0  0  0  0  0  0  0  0
   11.0053   -2.3832   18.9658 O   0  0  0  0  0  0  0  0  0  0  0  0
    5.8375   -9.0426   15.4554 C   0  0  0  0  0  0  0  0  0  0  0  0
    7.8838   -7.3391   17.4821 C   0  0  0  0  0  0  0  0  0  0  0  0
    1.5602  -12.8902   19.8573 C   0  0  0  0  0  0  0  0  0  0  0  0
    6.9406   -8.9053   17.2357 S   0  0  0  0  0  0  0  0  0  0  0  0
   -0.1356  -11.7863   18.2778 N   0  0  0  0  0  0  0  0  0  0  0  0
    9.3448   -5.9692   17.7492 N   0  0  0  0  0  0  0  0  0  0  0  0
    3.2809   -9.6391   16.9272 C   0  0  0  0  0  0  0  0  0  0  0  0
    0.3421  -12.5796   18.7662 C   0  0  0  0  0  0  0  0  0  0  0  0
    2.3521   -8.8855   16.5750 C   0  0  0  0  0  0  0  0  0  0  0  0
    9.1915   -7.8850   18.8076 C   0  0  0  0  0  0  0  0  0  0  0  0
    1.2150  -10.5841   17.9732 C   0  0  0  0  0  0  0  0  0  0  0  0
   10.1898   -6.3026   19.0970 He  0  0  0  0  0  0  0  0  0  0  0  0
    3.2797  -10.1794   18.7864 He  0  0  0  0  0  0  0  0  0  0  0  0
    7.4073   -7.3555   15.1722 He  0  0  0  0  0  0  0  0  0  0  0  0
    8.9992    1.0755   24.5466 He  0  0  0  0  0  0  0  0  0  0  0  0
    8.9724   -5.7272   16.1859 He  0  0  0  0  0  0  0  0  0  0  0  0
  1  2  1  0
  1  8  2  0
  1 10  1  0
  1 11  4  0
  1 12  2  0
  1 16  1  0
  1 17  1  0
  1 19  4  0
  1 20  1  0
  2  3  4  0
  3  6  4  0
  3 16  1  0
  3 20  3  0
  3 29  4  0
  4  9  4  0
  4 19  4  0
  4 24  1  0
  5 10  1  0
  5 19  2  0
  5 22  1  0
  5 23  1  0
  5 25  2  0
  6  7  3  0
  6 12  4  0
  6 16  1  0
  6 18  1  0
  6 21  4  0
  7 10  1  0
  7 11  2  0
  7 15  2  0
  7 18  4  0
  7 19  1  0
  7 21  4  0
  7 23  2  0
  7 25  4  0
  8  9  1  0
  8 10  1  0
  8 12  4  0
  8 13  1  0
  8 15  4  0
  8 20  4  0
  9 18  3  0
  9 20  4  0
  9 23  1  0
  9 24  4  0
 10 17  4  0
 10 20  3  0
 10 22  2  0
 10 23  4  0
 11 13  3  0
 11 26  1  0
 11 29  1  0
 12 19  1  0
 12 22  1  0
 12 25  3  0
 13 20  1  0
 13 25  2  0
 14 17  3  0
 15 18  3  0
 15 22  1  0
 15 27  4  0
 15 29  4  0
 16 25  3  0
 16 28  4  0
 17 20  4  0
 17 24  4  0
 17 28  1  0
 18 26  2  0
 19 23  4  0
 20 21  2  0
 20 26  4  0
 21 26  2  0
 21 28  4  0
 22 23  2  0
 22 24  1  0
 22 25  4  0
 22 26  1  0
 23 26  4  0
 23 29  2  0
 24 26  2  0
 25 27  4  0
 26 29  3  0
M  END
$$$$

 Created by Python create_sdf_string function

 34 37  0  0  0  0  0  0  0  0999 V2000
    9.1172   -0.2462   25.4014 C   0  0  0  0  0  0  0  0  0  0  0  0
    9.4370   -1.5113   24.7212 C   0  0  0  0  0  0  0  0  0  0  0  0
   10.4570   -5.8745   19.4000 C   0  0  0  0  0  0  0  0  0  0  0  0
    2.3855  -11.0164   18.5583 C   0  0  0  0  0  0  0  0  0  0  0  0
   10.1392   -3.6875   17.2305 C   0  0  0  0  0  0  0  0  0  0  0  0
    6.7857   -8.4862   15.5509 C   0  0  0  0  0  0  0  0  0  0  0  0
    2.4543  -11.9934   19.5832 C   0  0  0  0  0  0  0  0  0  0  0  0
    5.4394   -8.3218   17.4534 C   0  0  0  0  0  0  0  0  0  0  0  0
   10.9261   -4.5977   19.4836 C   0  0  0  0  0  0  0  0  0  0  0  0
    3.5120  -10.2482   18.3056 C   0  0  0  0  0  0  0  0  0  0  0  0
    9.3541   -4.8010   16.6719 C   0  0  0  0  0  0  0  0  0  0  0  0
    4.8901   -8.5308   16.9576 C   0  0  0  0  0  0  0  0  0  0  0  0
    8.7086   -4.6489   15.5580 O   0  0  0  0  0  0  0  0  0  0  0  0
   10.7575   -3.6236   18.5378 C   0  0  0  0  0  0  0  0  0  0  0  0
    8.0339   -8.1377   17.7952 C   0  0  0  0  0  0  0  0  0  0  0  0
    5.8816   -8.6507   19.0258 O   0  0  0  0  0  0  0  0  0  0  0  0
    1.1685   -9.8699   16.8461 C   0  0  0  0  0  0  0  0  0  0  0  0
    9.1822   -0.1359   26.8493 C   0  0  0  0  0  0  0  0  0  0  0  0
    9.6652   -6.3693   18.4235 C   0  0  0  0  0  0  0  0  0  0  0  0
   11.2812   -2.4177   18.8736 O   0  0  0  0  0  0  0  0  0  0  0  0
    5.5590   -8.8381   15.4178 C   0  0  0  0  0  0  0  0  0  0  0  0
    7.9302   -7.0968   17.0657 C   0  0  0  0  0  0  0  0  0  0  0  0
    7.5445   -7.3106   15.1993 C   0  0  0  0  0  0  0  0  0  0  0  0
    1.3715  -12.7906   19.7596 C   0  0  0  0  0  0  0  0  0  0  0  0
    8.9460    0.8914   24.5408 C   0  0  0  0  0  0  0  0  0  0  0  0
    7.1464   -8.6874   17.0435 C   0  0  0  0  0  0  0  0  0  0  0  0
    0.1748  -11.6830   18.1256 N   0  0  0  0  0  0  0  0  0  0  0  0
    9.2007   -5.8473   17.3076 C   0  0  0  0  0  0  0  0  0  0  0  0
    3.3754   -9.4379   17.3244 C   0  0  0  0  0  0  0  0  0  0  0  0
    0.2914  -12.6221   19.0340 C   0  0  0  0  0  0  0  0  0  0  0  0
    2.3155   -9.2014   16.5485 C   0  0  0  0  0  0  0  0  0  0  0  0
    9.1782   -7.8192   18.5762 C   0  0  0  0  0  0  0  0  0  0  0  0
    1.2525  -10.8597   17.8245 C   0  0  0  0  0  0  0  0  0  0  0  0
    8.3098   -6.4432   16.2060 C   0  0  0  0  0  0  0  0  0  0  0  0
  1  2  1  0
  1 18  1  0
  1 25  1  0
  3  9  4  0
  3 19  4  0
  4  7  4  0
  4 10  4  0
  4 33  4  0
  5 11  4  0
  5 14  4  0
  6 21  1  0
  6 23  1  0
  6 26  1  0
  7 24  4  0
  8 12  1  0
  8 16  2  0
  9 14  4  0
 10 29  4  0
 11 13  2  0
 11 28  4  0
 12 21  1  0
 12 29  1  0
 14 20  1  0
 15 22  1  0
 15 26  1  0
 15 32  1  0
 17 31  4  0
 17 33  4  0
 19 28  4  0
 19 32  1  0
 22 34  1  0
 23 34  1  0
 24 30  4  0
 27 30  4  0
 27 33  4  0
 28 34  1  0
 29 31  4  0
M  END
$$$$

 Created by Python create_sdf_string function

 34 85  0  0  0  0  0  0  0  0999 V2000
    9.6304   -1.9474   25.2067 C   0  0  0  0  0  0  0  0  0  0  0  0
   10.6072   -5.9439   19.5850 C   0  0  0  0  0  0  0  0  0  0  0  0
    2.2116  -10.8826   18.7556 C   0  0  0  0  0  0  0  0  0  0  0  0
   10.1336   -3.5059   17.7407 C   0  0  0  0  0  0  0  0  0  0  0  0
    6.7133   -7.8144   15.5115 C   0  0  0  0  0  0  0  0  0  0  0  0
    2.5075  -11.9642   19.4670 C   0  0  0  0  0  0  0  0  0  0  0  0
   10.4586   -4.5902   19.3036 C   0  0  0  0  0  0  0  0  0  0  0  0
    3.5387  -10.1660   18.4814 C   0  0  0  0  0  0  0  0  0  0  0  0
    9.0179   -4.9620   16.8007 C   0  0  0  0  0  0  0  0  0  0  0  0
    5.0223   -9.7201   16.0600 C   0  0  0  0  0  0  0  0  0  0  0  0
    8.2948   -5.1957   15.8889 O   0  0  0  0  0  0  0  0  0  0  0  0
   11.1125   -4.1501   18.6390 C   0  0  0  0  0  0  0  0  0  0  0  0
    5.8039   -8.6010   18.7016 O   0  0  0  0  0  0  0  0  0  0  0  0
    0.8478   -9.8505   16.6610 C   0  0  0  0  0  0  0  0  0  0  0  0
    9.1475   -0.5322   26.5764 C   0  0  0  0  0  0  0  0  0  0  0  0
    9.9359   -6.6476   18.8862 C   0  0  0  0  0  0  0  0  0  0  0  0
   11.2649   -2.3046   19.0281 O   0  0  0  0  0  0  0  0  0  0  0  0
    5.2421   -8.8404   15.2309 C   0  0  0  0  0  0  0  0  0  0  0  0
    8.3969   -7.6320   16.0436 N   0  0  0  0  0  0  0  0  0  0  0  0
    8.5251   -7.6747   15.6020 F   0  0  0  0  0  0  0  0  0  0  0  0
    0.9407  -12.7533   19.2966 C   0  0  0  0  0  0  0  0  0  0  0  0
    8.8405    0.7204   24.6940 C   0  0  0  0  0  0  0  0  0  0  0  0
    7.3139   -7.9870   16.7860 S   0  0  0  0  0  0  0  0  0  0  0  0
    0.2098  -11.6768   18.0879 N   0  0  0  0  0  0  0  0  0  0  0  0
    9.2187   -5.8170   17.8673 C   0  0  0  0  0  0  0  0  0  0  0  0
    3.6657   -9.2802   17.2083 F   0  0  0  0  0  0  0  0  0  0  0  0
    2.2520   -8.8592   16.9282 C   0  0  0  0  0  0  0  0  0  0  0  0
    9.5021   -7.7250   18.4548 C   0  0  0  0  0  0  0  0  0  0  0  0
    1.6293  -10.6913   17.5647 C   0  0  0  0  0  0  0  0  0  0  0  0
    9.3464   -0.2483   25.1979 He  0  0  0  0  0  0  0  0  0  0  0  0
    5.2378   -8.7601   16.6940 He  0  0  0  0  0  0  0  0  0  0  0  0
    8.1026   -8.0114   17.6595 He  0  0  0  0  0  0  0  0  0  0  0  0
    0.0855  -12.6803   19.1628 He  0  0  0  0  0  0  0  0  0  0  0  0
    8.0770   -7.0111   16.8838 He  0  0  0  0  0  0  0  0  0  0  0  0
  1 17  1  0
  1 20  2  0
  1 23  3  0
  2  6  1  0
  2  7  4  0
  2 10  3  0
  2 16  4  0
  2 21  3  0
  3  4  3  0
  3  6  2  0
  3  8  4  0
  3 10  3  0
  3 15  3  0
  3 17  2  0
  3 19  2  0
  3 20  3  0
  3 22  1  0
  3 29  4  0
  4  8  1  0
  4 12  4  0
  4 14  2  0
  4 19  3  0
  4 23  3  0
  5 10  1  0
  5 11  3  0
  5 18  1  0
  5 20  3  0
  5 23  1  0
  5 29  3  0
  6  9  3  0
  6 14  4  0
  6 17  2  0
  6 21  4  0
  7 16  3  0
  7 20  1  0
  7 25  2  0
  8 12  2  0
  8 15  4  0
  8 21  4  0
  8 23  3  0
  8 26  1  0
  9 11  2  0
  9 14  3  0
  9 25  4  0
  9 28  4  0
  9 29  3  0
 10 11  4  0
 10 14  3  0
 10 15  4  0
 10 16  4  0
 10 18  2  0
 10 26  1  0
 10 27  2  0
 11 13  3  0
 11 14  2  0
 11 21  3  0
 11 26  1  0
 12 17  1  0
 12 29  2  0
 13 18  4  0
 14 20  4  0
 14 26  1  0
 14 27  4  0
 14 29  4  0
 15 24  3  0
 16 20  2  0
 16 23  2  0
 16 25  4  0
 16 26  3  0
 16 28  1  0
 17 19  3  0
 18 21  2  0
 18 24  1  0
 18 27  3  0
 19 24  3  0
 19 26  3  0
 20 25  1  0
 20 26  3  0
 20 27  2  0
 20 29  4  0
 23 24  1  0
 23 25  4  0
 24 28  4  0
 24 29  4  0
 26 27  4  0
M  END
$$$$

 Created by Python create_sdf_string function

 34 38  0  0  0  0  0  0  0  0999 V2000
    9.3457   -0.5041   25.3665 N   0  0  0  0  0  0  0  0  0  0  0  0
    9.5824   -1.8445   24.9034 C   0  0  0  0  0  0  0  0  0  0  0  0
   10.4845   -5.9313   19.5826 C   0  0  0  0  0  0  0  0  0  0  0  0
    2.3665  -11.0839   18.5226 C   0  0  0  0  0  0  0  0  0  0  0  0
   10.0145   -3.7189   17.4901 C   0  0  0  0  0  0  0  0  0  0  0  0
    6.4660   -8.0914   15.4655 C   0  0  0  0  0  0  0  0  0  0  0  0
    2.3375  -12.0899   19.5417 C   0  0  0  0  0  0  0  0  0  0  0  0
    5.3137   -8.8316   17.2278 C   0  0  0  0  0  0  0  0  0  0  0  0
   10.8850   -4.6448   19.5775 C   0  0  0  0  0  0  0  0  0  0  0  0
    3.5401  -10.3653   18.2725 C   0  0  0  0  0  0  0  0  0  0  0  0
    9.2470   -4.8059   16.8528 C   0  0  0  0  0  0  0  0  0  0  0  0
    5.1166   -9.1731   16.2182 C   0  0  0  0  0  0  0  0  0  0  0  0
    8.4187   -4.6784   15.7638 O   0  0  0  0  0  0  0  0  0  0  0  0
   10.7250   -3.6463   18.6608 C   0  0  0  0  0  0  0  0  0  0  0  0
    8.2128   -8.3002   17.7717 C   0  0  0  0  0  0  0  0  0  0  0  0
    5.6896   -8.4865   18.5708 O   0  0  0  0  0  0  0  0  0  0  0  0
    1.2336   -9.7443   16.8492 C   0  0  0  0  0  0  0  0  0  0  0  0
    9.0802   -0.3641   26.8407 C   0  0  0  0  0  0  0  0  0  0  0  0
    9.7624   -6.5317   18.5751 C   0  0  0  0  0  0  0  0  0  0  0  0
   11.2736   -2.4334   18.8688 O   0  0  0  0  0  0  0  0  0  0  0  0
    5.2833   -8.7018   15.2486 C   0  0  0  0  0  0  0  0  0  0  0  0
    8.4616   -7.6035   16.2691 N   0  0  0  0  0  0  0  0  0  0  0  0
    8.1904   -7.9316   15.2048 C   0  0  0  0  0  0  0  0  0  0  0  0
    1.2232  -12.7999   19.6622 C   0  0  0  0  0  0  0  0  0  0  0  0
    8.9131    0.6080   24.5892 C   0  0  0  0  0  0  0  0  0  0  0  0
    7.0132   -8.4077   16.9033 N   0  0  0  0  0  0  0  0  0  0  0  0
    0.1490  -11.5841   18.0274 N   0  0  0  0  0  0  0  0  0  0  0  0
    9.2578   -5.9105   17.4337 C   0  0  0  0  0  0  0  0  0  0  0  0
    3.5691   -9.4818   17.2878 C   0  0  0  0  0  0  0  0  0  0  0  0
    0.1942  -12.5847   18.9128 C   0  0  0  0  0  0  0  0  0  0  0  0
    2.4030   -9.1217   16.5575 C   0  0  0  0  0  0  0  0  0  0  0  0
    9.4393   -7.9215   18.5622 C   0  0  0  0  0  0  0  0  0  0  0  0
    1.2274  -10.8112   17.8043 C   0  0  0  0  0  0  0  0  0  0  0  0
    8.4226   -6.7019   16.4999 C   0  0  0  0  0  0  0  0  0  0  0  0
  1  2  1  0
  1 18  1  0
  1 25  1  0
  3  9  4  0
  3 19  4  0
  4  7  4  0
  4 10  4  0
  4 33  4  0
  5 11  4  0
  5 14  4  0
  6 12  1  0
  6 21  1  0
  6 23  1  0
  6 26  1  0
  7 24  4  0
  8 12  1  0
  8 16  2  0
  8 29  1  0
  9 14  4  0
 10 29  4  0
 11 13  2  0
 11 28  4  0
 12 21  1  0
 14 20  1  0
 15 22  1  0
 15 26  1  0
 15 32  1  0
 17 31  4  0
 17 33  4  0
 19 28  4  0
 19 32  1  0
 22 23  1  0
 22 34  1  0
 24 30  4  0
 27 30  4  0
 27 33  4  0
 28 34  1  0
 29 31  4  0
M  END
$$$$

 Created by Python create_sdf_string function

 34 84  0  0  0  0  0  0  0  0999 V2000
    9.3660   -0.2096   24.9872 N   0  0  0  0  0  0  0  0  0  0  0  0
    9.2191   -2.0027   25.1311 C   0  0  0  0  0  0  0  0  0  0  0  0
    2.5319  -11.4487   18.7534 Cl  0  0  0  0  0  0  0  0  0  0  0  0
   10.5038   -3.8631   17.2929 C   0  0  0  0  0  0  0  0  0  0  0  0
    6.6551   -8.5065   15.4258 C   0  0  0  0  0  0  0  0  0  0  0  0
    2.5298  -11.8829   19.4838 C   0  0  0  0  0  0  0  0  0  0  0  0
    5.6984   -9.1940   16.9844 C   0  0  0  0  0  0  0  0  0  0  0  0
    3.4329  -10.5332   18.6827 C   0  0  0  0  0  0  0  0  0  0  0  0
    9.7569   -4.7267   16.8690 C   0  0  0  0  0  0  0  0  0  0  0  0
    4.9705   -9.7313   16.5184 C   0  0  0  0  0  0  0  0  0  0  0  0
    8.5637   -4.6129   15.4789 O   0  0  0  0  0  0  0  0  0  0  0  0
    8.1950   -8.2789   17.9539 C   0  0  0  0  0  0  0  0  0  0  0  0
    6.0003   -8.4050   18.5828 O   0  0  0  0  0  0  0  0  0  0  0  0
    1.1411  -10.1808   16.4752 N   0  0  0  0  0  0  0  0  0  0  0  0
    9.1875   -0.4525   27.0191 C   0  0  0  0  0  0  0  0  0  0  0  0
    9.9694   -6.5301   18.2903 C   0  0  0  0  0  0  0  0  0  0  0  0
   10.9472   -2.8059   18.4343 O   0  0  0  0  0  0  0  0  0  0  0  0
    5.6277   -8.7133   15.4208 C   0  0  0  0  0  0  0  0  0  0  0  0
    9.1821   -7.7486   15.3981 N   0  0  0  0  0  0  0  0  0  0  0  0
    8.1335   -8.5661   14.6185 C   0  0  0  0  0  0  0  0  0  0  0  0
    1.2443  -12.9049   19.5767 C   0  0  0  0  0  0  0  0  0  0  0  0
    8.6825   -0.0552   24.3601 C   0  0  0  0  0  0  0  0  0  0  0  0
    6.4602   -8.4716   15.9367 N   0  0  0  0  0  0  0  0  0  0  0  0
    0.6240  -11.9233   17.9780 N   0  0  0  0  0  0  0  0  0  0  0  0
    9.7361   -5.9379   17.3909 C   0  0  0  0  0  0  0  0  0  0  0  0
    3.4143   -9.5938   17.1746 C   0  0  0  0  0  0  0  0  0  0  0  0
   -0.1044  -12.6847   18.5709 P   0  0  0  0  0  0  0  0  0  0  0  0
    2.6307   -9.6018   16.8303 C   0  0  0  0  0  0  0  0  0  0  0  0
    9.4741   -7.9004   18.5923 C   0  0  0  0  0  0  0  0  0  0  0  0
    0.8882  -10.6820   17.7915 C   0  0  0  0  0  0  0  0  0  0  0  0
    8.6755   -6.9055   16.2000 O   0  0  0  0  0  0  0  0  0  0  0  0
   10.5782   -5.8064   19.7621 He  0  0  0  0  0  0  0  0  0  0  0  0
   11.1311   -4.4288   18.8868 He  0  0  0  0  0  0  0  0  0  0  0  0
   10.4552   -3.7861   18.6769 He  0  0  0  0  0  0  0  0  0  0  0  0
  1  2  1  0
  1  6  2  0
  1  7  2  0
  1 10  4  0
  1 15  1  0
  1 17  1  0
  1 19  3  0
  1 22  1  0
  2 13  1  0
  2 31  4  0
  3  6  4  0
  3  8  4  0
  3 21  1  0
  3 23  2  0
  3 30  4  0
  4  9  4  0
  4 21  3  0
  5  8  1  0
  5 10  1  0
  5 15  3  0
  5 18  1  0
  5 23  1  0
  5 27  3  0
  6  9  4  0
  6 20  4  0
  6 24  3  0
  7  8  2  0
  7 11  2  0
  7 13  1  0
  7 16  2  0
  7 18  1  0
  7 28  3  0
  7 30  1  0
  8 10  2  0
  8 17  2  0
  8 20  2  0
  8 26  4  0
  9 11  2  0
  9 18  1  0
  9 25  4  0
 10 11  1  0
 10 18  1  0
 10 20  2  0
 10 21  4  0
 10 22  1  0
 10 23  4  0
 10 25  1  0
 10 29  1  0
 10 30  4  0
 11 13  2  0
 11 23  3  0
 12 15  4  0
 12 29  1  0
 13 19  4  0
 13 22  4  0
 13 23  1  0
 13 31  1  0
 14 17  3  0
 14 30  4  0
 15 19  1  0
 15 21  4  0
 15 25  1  0
 15 28  3  0
 16 23  2  0
 16 25  4  0
 16 29  1  0
 17 18  4  0
 17 27  3  0
 18 27  1  0
 19 20  4  0
 19 22  1  0
 19 24  3  0
 20 27  2  0
 21 27  4  0
 21 31  4  0
 22 29  3  0
 23 30  2  0
 23 31  3  0
 24 27  4  0
 24 30  4  0
 24 31  3  0
 26 28  4  0
 27 31  3  0
 28 29  3  0
M  END
$$$$

 Created by Python create_sdf_string function

 34 39  0  0  0  0  0  0  0  0999 V2000
    9.2316   -0.7151   25.4030 N   0  0  0  0  0  0  0  0  0  0  0  0
    9.4192   -2.0416   25.0549 C   0  0  0  0  0  0  0  0  0  0  0  0
   10.6393   -5.8389   19.4216 C   0  0  0  0  0  0  0  0  0  0  0  0
    2.3530  -11.2233   18.5566 C   0  0  0  0  0  0  0  0  0  0  0  0
   10.1633   -3.7836   17.3370 C   0  0  0  0  0  0  0  0  0  0  0  0
    6.7808   -8.5273   15.5424 C   0  0  0  0  0  0  0  0  0  0  0  0
    2.2690  -12.1837   19.6057 C   0  0  0  0  0  0  0  0  0  0  0  0
    5.7933   -8.6533   17.6014 C   0  0  0  0  0  0  0  0  0  0  0  0
   10.9747   -4.5502   19.4041 C   0  0  0  0  0  0  0  0  0  0  0  0
    3.5373  -10.5287   18.3261 C   0  0  0  0  0  0  0  0  0  0  0  0
    9.4548   -4.6724   16.6223 C   0  0  0  0  0  0  0  0  0  0  0  0
    4.7425   -9.4429   16.6915 C   0  0  0  0  0  0  0  0  0  0  0  0
    8.7970   -4.4095   15.5676 O   0  0  0  0  0  0  0  0  0  0  0  0
   10.8252   -3.7049   18.4047 C   0  0  0  0  0  0  0  0  0  0  0  0
    8.3649   -7.9669   17.4923 C   0  0  0  0  0  0  0  0  0  0  0  0
    6.0324   -8.4328   18.5535 O   0  0  0  0  0  0  0  0  0  0  0  0
    1.3423  -10.0423   16.8054 N   0  0  0  0  0  0  0  0  0  0  0  0
    9.1581   -0.3703   26.7284 C   0  0  0  0  0  0  0  0  0  0  0  0
    9.9009   -6.4573   18.4049 C   0  0  0  0  0  0  0  0  0  0  0  0
   11.3401   -2.4104   18.6368 O   0  0  0  0  0  0  0  0  0  0  0  0
    5.4002   -8.9393   15.6859 C   0  0  0  0  0  0  0  0  0  0  0  0
    8.8207   -7.4339   15.2330 N   0  0  0  0  0  0  0  0  0  0  0  0
    8.0011   -8.3874   14.8390 C   0  0  0  0  0  0  0  0  0  0  0  0
    1.1491  -12.9157   19.6745 C   0  0  0  0  0  0  0  0  0  0  0  0
    9.0320    0.3120   24.5167 C   0  0  0  0  0  0  0  0  0  0  0  0
    7.0281   -8.3387   16.9831 N   0  0  0  0  0  0  0  0  0  0  0  0
    0.2072  -11.8141   17.9242 N   0  0  0  0  0  0  0  0  0  0  0  0
    9.4636   -5.9728   17.1801 C   0  0  0  0  0  0  0  0  0  0  0  0
    3.5872   -9.8018   17.2101 C   0  0  0  0  0  0  0  0  0  0  0  0
    0.1987  -12.7604   18.8453 C   0  0  0  0  0  0  0  0  0  0  0  0
    2.5267   -9.4924   16.5162 C   0  0  0  0  0  0  0  0  0  0  0  0
    9.3735   -7.8442   18.5390 C   0  0  0  0  0  0  0  0  0  0  0  0
    1.2708  -11.0281   17.7370 C   0  0  0  0  0  0  0  0  0  0  0  0
    8.8483   -7.0278   16.4053 C   0  0  0  0  0  0  0  0  0  0  0  0
  1  2  1  0
  1 18  1  0
  1 25  1  0
  3  9  4  0
  3 19  4  0
  4  7  4  0
  4 10  4  0
  4 33  4  0
  5 11  4  0
  5 14  4  0
  6 21  1  0
  6 23  1  0
  6 26  1  0
  7 24  4  0
  8 12  1  0
  8 16  1  0
  8 26  1  0
  9 14  4  0
 10 29  4  0
 11 13  2  0
 11 28  4  0
 12 21  1  0
 12 29  1  0
 14 20  1  0
 15 26  4  0
 15 32  1  0
 15 34  4  0
 16 26  1  0
 17 31  4  0
 17 33  4  0
 19 28  4  0
 19 32  1  0
 22 23  4  0
 22 34  4  0
 24 30  4  0
 27 30  4  0
 27 33  4  0
 28 34  1  0
 29 31  4  0
M  END
$$$$

 Created by Python create_sdf_string function

 34 67  0  0  0  0  0  0  0  0999 V2000
    9.1121   -0.8751   25.4838 N   0  0  0  0  0  0  0  0  0  0  0  0
    9.4536   -2.1111   25.5093 C   0  0  0  0  0  0  0  0  0  0  0  0
   11.1881   -6.1541   19.5441 C   0  0  0  0  0  0  0  0  0  0  0  0
    2.4552  -11.2798   18.5092 F   0  0  0  0  0  0  0  0  0  0  0  0
   10.2720   -4.0474   17.1637 C   0  0  0  0  0  0  0  0  0  0  0  0
    2.6806  -12.3982   19.8264 C   0  0  0  0  0  0  0  0  0  0  0  0
    5.6104   -9.2243   19.6040 F   0  0  0  0  0  0  0  0  0  0  0  0
   11.0721   -4.2312   19.7117 C   0  0  0  0  0  0  0  0  0  0  0  0
    3.4795  -10.3623   17.8742 C   0  0  0  0  0  0  0  0  0  0  0  0
    9.7219   -4.2397   16.6437 C   0  0  0  0  0  0  0  0  0  0  0  0
    5.1183   -9.9767   15.4851 N   0  0  0  0  0  0  0  0  0  0  0  0
    8.3158   -4.2847   15.2031 O   0  0  0  0  0  0  0  0  0  0  0  0
    5.8245   -8.0651   18.4496 O   0  0  0  0  0  0  0  0  0  0  0  0
    1.4315  -10.1283   16.8272 N   0  0  0  0  0  0  0  0  0  0  0  0
    9.1730   -0.7743   26.5814 C   0  0  0  0  0  0  0  0  0  0  0  0
   10.1031   -6.5212   18.0288 S   0  0  0  0  0  0  0  0  0  0  0  0
   11.3107   -2.1468   19.0863 O   0  0  0  0  0  0  0  0  0  0  0  0
    5.3554   -9.1954   15.8861 B   0  0  0  0  0  0  0  0  0  0  0  0
   10.6812   -7.9705   14.9567 F   0  0  0  0  0  0  0  0  0  0  0  0
    0.8780  -12.8448   19.8860 P   0  0  0  0  0  0  0  0  0  0  0  0
    7.5373   -8.0889   17.9565 N   0  0  0  0  0  0  0  0  0  0  0  0
    9.5172   -5.7130   17.4859 C   0  0  0  0  0  0  0  0  0  0  0  0
    3.7206   -9.4304   17.1929 C   0  0  0  0  0  0  0  0  0  0  0  0
    0.3326  -13.0137   18.7731 C   0  0  0  0  0  0  0  0  0  0  0  0
    2.6179   -9.4010   16.2957 I   0  0  0  0  0  0  0  0  0  0  0  0
    8.7407   -7.7561   18.6722 O   0  0  0  0  0  0  0  0  0  0  0  0
    1.4821  -10.7935   18.2250 C   0  0  0  0  0  0  0  0  0  0  0  0
    6.7456   -8.7569   15.3868 He  0  0  0  0  0  0  0  0  0  0  0  0
   10.8843   -3.7204   18.7419 He  0  0  0  0  0  0  0  0  0  0  0  0
    8.3074   -7.8702   17.3974 He  0  0  0  0  0  0  0  0  0  0  0  0
    8.7975   -8.6019   15.5070 He  0  0  0  0  0  0  0  0  0  0  0  0
    9.1362    0.1624   24.6024 He  0  0  0  0  0  0  0  0  0  0  0  0
   -0.0254  -11.3946   17.4085 He  0  0  0  0  0  0  0  0  0  0  0  0
    8.8192   -6.7949   16.4848 He  0  0  0  0  0  0  0  0  0  0  0  0
  1  2  1  0
  1  4  4  0
  1 15  1  0
  1 19  2  0
  2  7  2  0
  2 11  3  0
  2 15  3  0
  3  7  4  0
  3  8  4  0
  3 11  4  0
  3 14  1  0
  3 16  2  0
  3 18  1  0
  3 21  1  0
  4  6  4  0
  4  8  1  0
  4  9  4  0
  4 21  3  0
  4 27  4  0
  5 10  4  0
  5 19  4  0
  5 24  2  0
  6  9  1  0
  6 13  2  0
  6 16  3  0
  6 20  4  0
  6 22  2  0
  7 11  1  0
  7 12  1  0
  7 16  2  0
  7 17  4  0
  7 21  1  0
  7 24  1  0
  7 25  4  0
  8 11  2  0
  8 21  1  0
  8 25  1  0
  9 12  2  0
  9 13  3  0
  9 19  3  0
  9 23  4  0
 10 11  2  0
 10 12  2  0
 10 19  3  0
 10 22  4  0
 11 12  3  0
 11 18  1  0
 11 19  1  0
 11 23  4  0
 12 17  4  0
 12 26  3  0
 13 21  1  0
 14 19  3  0
 14 21  2  0
 14 25  4  0
 14 27  4  0
 15 17  4  0
 15 24  3  0
 16 19  2  0
 16 21  2  0
 16 23  2  0
 16 26  1  0
 18 19  4  0
 19 24  3  0
 20 24  4  0
 23 25  4  0
 25 26  3  0
M  END
$$$$

 Created by Python create_sdf_string function

 34 36  0  0  0  0  0  0  0  0999 V2000
    9.1717   -0.9316   25.5074 N   0  0  0  0  0  0  0  0  0  0  0  0
    9.4457   -2.2812   25.2208 C   0  0  0  0  0  0  0  0  0  0  0  0
   10.6314   -5.9105   19.4440 C   0  0  0  0  0  0  0  0  0  0  0  0
    2.4834  -11.1817   18.5304 C   0  0  0  0  0  0  0  0  0  0  0  0
   10.2440   -3.6555   17.4610 C   0  0  0  0  0  0  0  0  0  0  0  0
    6.8263   -8.8383   15.4111 C   0  0  0  0  0  0  0  0  0  0  0  0
    2.3539  -12.1248   19.5666 C   0  0  0  0  0  0  0  0  0  0  0  0
    6.2448   -9.0533   18.7452 O   0  0  0  0  0  0  0  0  0  0  0  0
   11.1067   -4.6167   19.4972 C   0  0  0  0  0  0  0  0  0  0  0  0
    3.7337  -10.5753   18.1083 C   0  0  0  0  0  0  0  0  0  0  0  0
    9.5233   -4.4942   16.7241 C   0  0  0  0  0  0  0  0  0  0  0  0
    4.8226   -9.5159   16.3807 N   0  0  0  0  0  0  0  0  0  0  0  0
    8.8871   -4.1953   15.6274 O   0  0  0  0  0  0  0  0  0  0  0  0
   10.8738   -3.5650   18.6184 C   0  0  0  0  0  0  0  0  0  0  0  0
    8.2296   -7.6826   17.3858 C   0  0  0  0  0  0  0  0  0  0  0  0
    5.9456   -7.6794   18.2794 O   0  0  0  0  0  0  0  0  0  0  0  0
    1.4270   -9.9542   16.8210 N   0  0  0  0  0  0  0  0  0  0  0  0
    9.0780   -0.5792   26.8358 C   0  0  0  0  0  0  0  0  0  0  0  0
    9.8204   -6.3425   18.4549 C   0  0  0  0  0  0  0  0  0  0  0  0
   11.3841   -2.3137   18.9892 O   0  0  0  0  0  0  0  0  0  0  0  0
    5.8963   -8.9780   16.2630 C   0  0  0  0  0  0  0  0  0  0  0  0
    9.0520   -7.8231   15.0653 C   0  0  0  0  0  0  0  0  0  0  0  0
    7.9809   -8.5291   15.3983 C   0  0  0  0  0  0  0  0  0  0  0  0
    1.2574  -12.8305   19.6698 C   0  0  0  0  0  0  0  0  0  0  0  0
    9.1691    0.0372   24.5409 C   0  0  0  0  0  0  0  0  0  0  0  0
    6.8743   -8.2939   17.7367 C   0  0  0  0  0  0  0  0  0  0  0  0
    0.2759  -11.6771   17.9582 C   0  0  0  0  0  0  0  0  0  0  0  0
    9.4020   -5.7982   17.2689 C   0  0  0  0  0  0  0  0  0  0  0  0
    3.7634   -9.8407   17.0385 C   0  0  0  0  0  0  0  0  0  0  0  0
    0.2226  -12.6472   18.8892 C   0  0  0  0  0  0  0  0  0  0  0  0
    2.6360   -9.4405   16.4776 C   0  0  0  0  0  0  0  0  0  0  0  0
    9.1103   -7.6992   18.5732 O   0  0  0  0  0  0  0  0  0  0  0  0
    1.3804  -10.9441   17.7393 C   0  0  0  0  0  0  0  0  0  0  0  0
    8.5867   -6.7642   16.5475 C   0  0  0  0  0  0  0  0  0  0  0  0
  1  2  1  0
  1 18  1  0
  1 25  1  0
  3  9  4  0
  3 19  4  0
  4  7  4  0
  4 10  4  0
  4 33  4  0
  5 11  4  0
  5 14  4  0
  6 21  1  0
  6 23  1  0
  7 24  4  0
  8 16  1  0
  8 26  1  0
  9 14  4  0
 10 29  4  0
 11 13  2  0
 11 28  4  0
 12 21  1  0
 12 29  1  0
 14 20  1  0
 15 26  4  0
 15 32  1  0
 15 34  1  0
 16 26  1  0
 17 31  4  0
 17 33  4  0
 19 28  4  0
 19 32  1  0
 22 23  1  0
 24 30  4  0
 27 30  4  0
 27 33  4  0
 28 34  1  0
 29 31  4  0
M  END
$$$$

 Created by Python create_sdf_string function

 34 73  0  0  0  0  0  0  0  0999 V2000
    9.5003   -0.8142   25.3195 N   0  0  0  0  0  0  0  0  0  0  0  0
    9.4160   -1.9700   24.7573 C   0  0  0  0  0  0  0  0  0  0  0  0
   10.8858   -5.9422   19.4443 C   0  0  0  0  0  0  0  0  0  0  0  0
    2.1900  -11.1464   18.6065 F   0  0  0  0  0  0  0  0  0  0  0  0
   10.6047   -3.1844   17.5423 C   0  0  0  0  0  0  0  0  0  0  0  0
    6.2485   -8.9116   15.3945 C   0  0  0  0  0  0  0  0  0  0  0  0
    2.4988  -12.0546   19.4063 C   0  0  0  0  0  0  0  0  0  0  0  0
    5.3407   -8.4256   18.0139 O   0  0  0  0  0  0  0  0  0  0  0  0
   11.2874   -4.9077   19.6381 C   0  0  0  0  0  0  0  0  0  0  0  0
    3.6572  -10.5563   18.0979 C   0  0  0  0  0  0  0  0  0  0  0  0
    5.2213   -9.4049   16.1186 N   0  0  0  0  0  0  0  0  0  0  0  0
    8.9514   -4.3509   15.7912 O   0  0  0  0  0  0  0  0  0  0  0  0
    8.4538   -7.5409   17.6869 C   0  0  0  0  0  0  0  0  0  0  0  0
    6.0475   -7.5758   18.3149 O   0  0  0  0  0  0  0  0  0  0  0  0
    1.3317  -10.0275   16.3087 N   0  0  0  0  0  0  0  0  0  0  0  0
    9.0251   -0.5750   27.0080 C   0  0  0  0  0  0  0  0  0  0  0  0
    9.8437   -6.1938   18.7644 C   0  0  0  0  0  0  0  0  0  0  0  0
   11.1031   -2.6442   19.0135 F   0  0  0  0  0  0  0  0  0  0  0  0
    5.6542   -8.8952   16.5106 C   0  0  0  0  0  0  0  0  0  0  0  0
    9.3053   -7.1339   14.8171 C   0  0  0  0  0  0  0  0  0  0  0  0
    8.9833   -7.1382   16.1995 C   0  0  0  0  0  0  0  0  0  0  0  0
    1.4466  -13.0149   19.5878 C   0  0  0  0  0  0  0  0  0  0  0  0
    9.2248   -0.1365   25.0745 C   0  0  0  0  0  0  0  0  0  0  0  0
    9.2321   -5.8273   17.3308 Cl  0  0  0  0  0  0  0  0  0  0  0  0
    3.8946  -10.1922   17.1020 C   0  0  0  0  0  0  0  0  0  0  0  0
    0.1239  -12.6175   18.8507 C   0  0  0  0  0  0  0  0  0  0  0  0
    2.3774   -9.1764   16.2833 C   0  0  0  0  0  0  0  0  0  0  0  0
    9.2650   -7.7886   18.8821 O   0  0  0  0  0  0  0  0  0  0  0  0
    1.3813  -11.0940   17.4647 C   0  0  0  0  0  0  0  0  0  0  0  0
    7.6666   -6.1133   17.9334 C   0  0  0  0  0  0  0  0  0  0  0  0
    9.5558   -4.3710   16.6631 He  0  0  0  0  0  0  0  0  0  0  0  0
   10.2924   -3.4236   19.3135 He  0  0  0  0  0  0  0  0  0  0  0  0
    6.8564   -7.7686   17.9983 He  0  0  0  0  0  0  0  0  0  0  0  0
    0.1539  -11.6351   18.1001 He  0  0  0  0  0  0  0  0  0  0  0  0
  1  2  1  0
  1  4  3  0
  1 16  1  0
  1 23  1  0
  1 27  4  0
  2 14  3  0
  2 28  3  0
  3  8  2  0
  3 11  3  0
  3 17  4  0
  3 18  2  0
  4  7  3  0
  4 10  4  0
  4 19  2  0
  4 21  2  0
  4 22  2  0
  4 29  4  0
  5  8  1  0
  5 12  2  0
  5 22  4  0
  5 24  2  0
  5 26  2  0
  6 19  1  0
  6 21  3  0
  6 28  1  0
  7  8  2  0
  7 21  4  0
  7 22  4  0
  7 23  4  0
  7 30  1  0
  8 11  1  0
  8 12  4  0
  8 13  1  0
  8 14  1  0
  8 21  3  0
  8 26  3  0
  8 29  4  0
  8 30  4  0
  9 21  3  0
 10 11  2  0
 10 25  4  0
 11 19  4  0
 11 24  4  0
 11 26  1  0
 12 26  4  0
 12 30  2  0
 13 16  1  0
 13 20  1  0
 13 28  1  0
 13 30  1  0
 14 20  3  0
 15 21  1  0
 15 27  4  0
 16 18  3  0
 17 20  3  0
 17 28  1  0
 17 30  2  0
 18 19  3  0
 18 25  2  0
 18 27  2  0
 19 26  3  0
 19 28  2  0
 20 21  2  0
 20 23  2  0
 20 24  1  0
 20 25  1  0
 21 24  1  0
 22 26  4  0
 22 28  4  0
 23 25  4  0
 24 30  1  0
 25 27  3  0
 29 30  3  0
M  END
$$$$

 Created by Python create_sdf_string function

 34 38  0  0  0  0  0  0  0  0999 V2000
    9.3257   -0.8835   25.4619 N   0  0  0  0  0  0  0  0  0  0  0  0
    9.5647   -2.0461   24.8368 C   0  0  0  0  0  0  0  0  0  0  0  0
   10.5391   -5.8973   19.4968 C   0  0  0  0  0  0  0  0  0  0  0  0
    2.4784  -11.2089   18.4110 C   0  0  0  0  0  0  0  0  0  0  0  0
   10.3076   -3.6244   17.6508 C   0  0  0  0  0  0  0  0  0  0  0  0
    6.8879   -8.6097   15.4928 C   0  0  0  0  0  0  0  0  0  0  0  0
    2.4075  -12.1745   19.4526 C   0  0  0  0  0  0  0  0  0  0  0  0
    5.6915   -8.4972   17.9007 C   0  0  0  0  0  0  0  0  0  0  0  0
   11.0306   -4.6246   19.7089 C   0  0  0  0  0  0  0  0  0  0  0  0
    3.6611  -10.5082   18.0985 C   0  0  0  0  0  0  0  0  0  0  0  0
    9.6041   -4.4386   16.9095 C   0  0  0  0  0  0  0  0  0  0  0  0
    4.8952   -9.1902   16.7181 N   0  0  0  0  0  0  0  0  0  0  0  0
    9.1733   -4.0555   15.7542 O   0  0  0  0  0  0  0  0  0  0  0  0
   10.8662   -3.5752   18.8489 C   0  0  0  0  0  0  0  0  0  0  0  0
    8.1026   -7.5794   17.7845 C   0  0  0  0  0  0  0  0  0  0  0  0
    5.8314   -7.6947   18.4077 O   0  0  0  0  0  0  0  0  0  0  0  0
    1.3259  -10.0066   16.6561 N   0  0  0  0  0  0  0  0  0  0  0  0
    9.0712   -0.8218   26.7959 C   0  0  0  0  0  0  0  0  0  0  0  0
    9.8334   -6.3317   18.5422 C   0  0  0  0  0  0  0  0  0  0  0  0
   11.2934   -2.3948   19.1804 O   0  0  0  0  0  0  0  0  0  0  0  0
    5.8322   -9.0139   15.8421 C   0  0  0  0  0  0  0  0  0  0  0  0
    8.5229   -7.4545   15.3272 C   0  0  0  0  0  0  0  0  0  0  0  0
    8.7860   -7.1905   15.8220 C   0  0  0  0  0  0  0  0  0  0  0  0
    1.2581  -12.8487   19.6492 C   0  0  0  0  0  0  0  0  0  0  0  0
    9.1851    0.2601   24.7080 C   0  0  0  0  0  0  0  0  0  0  0  0
    6.8781   -8.0728   17.7490 C   0  0  0  0  0  0  0  0  0  0  0  0
    0.2517  -11.6770   17.9306 C   0  0  0  0  0  0  0  0  0  0  0  0
    9.1835   -5.7904   17.3632 C   0  0  0  0  0  0  0  0  0  0  0  0
    3.6358   -9.7734   17.1025 C   0  0  0  0  0  0  0  0  0  0  0  0
    0.1990  -12.6260   18.8975 C   0  0  0  0  0  0  0  0  0  0  0  0
    2.5155   -9.4600   16.3370 C   0  0  0  0  0  0  0  0  0  0  0  0
    9.2779   -7.6518   18.5422 O   0  0  0  0  0  0  0  0  0  0  0  0
    1.3146  -10.9476   17.6570 C   0  0  0  0  0  0  0  0  0  0  0  0
    7.7635   -6.2176   17.4368 C   0  0  0  0  0  0  0  0  0  0  0  0
  1  2  1  0
  1 18  1  0
  1 25  1  0
  3  9  4  0
  3 19  4  0
  4  7  4  0
  4 10  4  0
  4 33  4  0
  5 11  4  0
  5 14  4  0
  6 21  1  0
  6 22  1  0
  7 24  4  0
  8 12  1  0
  8 16  1  0
  8 26  1  0
  9 14  4  0
 10 29  4  0
 11 13  2  0
 11 28  4  0
 12 21  1  0
 12 29  1  0
 14 20  1  0
 15 26  1  0
 15 32  1  0
 15 34  1  0
 16 26  1  0
 17 31  4  0
 17 33  4  0
 19 28  4  0
 19 32  1  0
 22 23  1  0
 23 28  1  0
 24 30  4  0
 27 30  4  0
 27 33  4  0
 28 34  1  0
 29 31  4  0
M  END
$$$$

 Created by Python create_sdf_string function

 34 63  0  0  0  0  0  0  0  0999 V2000
    9.2580   -1.0688   25.4371 N   0  0  0  0  0  0  0  0  0  0  0  0
   10.5139   -6.0575   19.8504 C   0  0  0  0  0  0  0  0  0  0  0  0
    2.3136  -10.9654   18.3559 C   0  0  0  0  0  0  0  0  0  0  0  0
   10.4965   -3.2181   17.3968 C   0  0  0  0  0  0  0  0  0  0  0  0
    6.7838   -8.5971   15.1706 C   0  0  0  0  0  0  0  0  0  0  0  0
   10.9789   -4.4923   19.4054 C   0  0  0  0  0  0  0  0  0  0  0  0
    3.9811  -10.3146   18.0831 C   0  0  0  0  0  0  0  0  0  0  0  0
    9.4121   -4.0039   16.7649 C   0  0  0  0  0  0  0  0  0  0  0  0
    4.7244   -9.6291   16.9220 N   0  0  0  0  0  0  0  0  0  0  0  0
    9.4108   -4.0692   15.7698 O   0  0  0  0  0  0  0  0  0  0  0  0
   10.8717   -3.2409   19.4075 O   0  0  0  0  0  0  0  0  0  0  0  0
    8.3850   -7.3462   17.9495 C   0  0  0  0  0  0  0  0  0  0  0  0
    5.1443   -7.9068   18.4001 O   0  0  0  0  0  0  0  0  0  0  0  0
    1.2944   -9.9344   16.4781 N   0  0  0  0  0  0  0  0  0  0  0  0
    8.8166   -0.9219   27.0298 C   0  0  0  0  0  0  0  0  0  0  0  0
    9.2344   -6.3743   18.2840 C   0  0  0  0  0  0  0  0  0  0  0  0
   11.4800   -2.2975   19.4605 O   0  0  0  0  0  0  0  0  0  0  0  0
    5.8410   -8.9695   15.6384 C   0  0  0  0  0  0  0  0  0  0  0  0
    1.7175  -12.5919   19.2317 C   0  0  0  0  0  0  0  0  0  0  0  0
    9.0182    0.3821   24.4400 C   0  0  0  0  0  0  0  0  0  0  0  0
    4.9709   -6.6439   17.5671 C   0  0  0  0  0  0  0  0  0  0  0  0
    0.1697  -11.9096   17.9547 I   0  0  0  0  0  0  0  0  0  0  0  0
    9.0721   -5.9546   18.0246 C   0  0  0  0  0  0  0  0  0  0  0  0
    3.7297   -9.4669   17.1102 C   0  0  0  0  0  0  0  0  0  0  0  0
    0.3791  -12.1934   18.7505 C   0  0  0  0  0  0  0  0  0  0  0  0
    2.6281   -9.7622   16.3583 C   0  0  0  0  0  0  0  0  0  0  0  0
    9.5472   -7.6665   18.4480 O   0  0  0  0  0  0  0  0  0  0  0  0
    2.0705  -11.1516   17.7318 C   0  0  0  0  0  0  0  0  0  0  0  0
    9.5556   -2.0293   25.0217 He  0  0  0  0  0  0  0  0  0  0  0  0
    2.5683  -11.8550   19.3712 He  0  0  0  0  0  0  0  0  0  0  0  0
    5.4023   -7.1152   18.5099 He  0  0  0  0  0  0  0  0  0  0  0  0
    9.4816   -7.6063   16.3387 He  0  0  0  0  0  0  0  0  0  0  0  0
    8.3520   -6.9203   15.4909 He  0  0  0  0  0  0  0  0  0  0  0  0
    6.7147   -6.1532   17.4990 He  0  0  0  0  0  0  0  0  0  0  0  0
  1 16  4  0
  1 20  1  0
  1 21  4  0
  2  5  1  0
  2  6  4  0
  2 17  3  0
  3  7  4  0
  3 26  4  0
  3 28  4  0
  4  8  4  0
  4 11  4  0
  4 13  4  0
  4 21  4  0
  4 26  1  0
  4 28  3  0
  5  7  4  0
  5 12  4  0
  5 15  3  0
  5 18  1  0
  5 24  3  0
  6 11  4  0
  6 21  3  0
  7 24  4  0
  7 26  4  0
  8 10  1  0
  8 11  2  0
  8 12  4  0
  8 14  1  0
  8 15  3  0
  8 23  4  0
  9 18  1  0
  9 23  2  0
  9 24  1  0
  9 25  1  0
  9 27  1  0
 11 12  1  0
 11 14  1  0
 11 17  1  0
 11 18  3  0
 12 16  4  0
 12 27  1  0
 12 28  1  0
 13 21  1  0
 13 25  3  0
 14 26  4  0
 14 28  4  0
 15 26  1  0
 16 21  2  0
 16 23  4  0
 16 27  1  0
 17 20  4  0
 17 23  3  0
 19 25  4  0
 19 28  3  0
 21 24  4  0
 21 27  1  0
 22 23  4  0
 22 24  2  0
 22 25  4  0
 22 26  4  0
 22 28  4  0
 24 25  2  0
 24 26  4  0
M  END
$$$$

 Created by Python create_sdf_string function

 34 38  0  0  0  0  0  0  0  0999 V2000
    9.1952   -0.9565   25.4055 N   0  0  0  0  0  0  0  0  0  0  0  0
    9.5925   -2.1065   24.8272 C   0  0  0  0  0  0  0  0  0  0  0  0
   10.3161   -5.8292   19.4724 C   0  0  0  0  0  0  0  0  0  0  0  0
    2.5939  -11.0764   18.3436 C   0  0  0  0  0  0  0  0  0  0  0  0
   10.3676   -3.3954   17.6853 C   0  0  0  0  0  0  0  0  0  0  0  0
    7.0996   -8.6800   15.4223 C   0  0  0  0  0  0  0  0  0  0  0  0
    2.5528  -11.9935   19.4517 C   0  0  0  0  0  0  0  0  0  0  0  0
    6.2182   -7.5927   18.1082 C   0  0  0  0  0  0  0  0  0  0  0  0
   10.8146   -4.6252   19.7248 C   0  0  0  0  0  0  0  0  0  0  0  0
    3.7369  -10.3055   18.0442 C   0  0  0  0  0  0  0  0  0  0  0  0
    9.6713   -4.3216   16.9549 C   0  0  0  0  0  0  0  0  0  0  0  0
    4.9247   -8.9392   16.4964 N   0  0  0  0  0  0  0  0  0  0  0  0
    9.2234   -4.0234   15.8198 O   0  0  0  0  0  0  0  0  0  0  0  0
   10.8828   -3.4822   18.9582 C   0  0  0  0  0  0  0  0  0  0  0  0
    8.2337   -7.7964   17.6708 C   0  0  0  0  0  0  0  0  0  0  0  0
    5.3329   -7.8082   18.5944 O   0  0  0  0  0  0  0  0  0  0  0  0
    1.4748   -9.9559   16.5706 N   0  0  0  0  0  0  0  0  0  0  0  0
    8.7992   -0.8985   26.7392 C   0  0  0  0  0  0  0  0  0  0  0  0
    9.6577   -6.1774   18.3269 C   0  0  0  0  0  0  0  0  0  0  0  0
   11.4633   -2.4114   19.4723 O   0  0  0  0  0  0  0  0  0  0  0  0
    5.8421   -9.0574   15.7644 C   0  0  0  0  0  0  0  0  0  0  0  0
    8.3642   -8.0169   16.0575 C   0  0  0  0  0  0  0  0  0  0  0  0
    8.5335   -6.5293   15.8701 O   0  0  0  0  0  0  0  0  0  0  0  0
    1.4754  -12.6979   19.6380 C   0  0  0  0  0  0  0  0  0  0  0  0
    9.0824    0.2493   24.5986 C   0  0  0  0  0  0  0  0  0  0  0  0
    5.4360   -7.5115   17.2518 C   0  0  0  0  0  0  0  0  0  0  0  0
    0.3865  -11.7047   17.8500 N   0  0  0  0  0  0  0  0  0  0  0  0
    9.4661   -5.5313   17.4184 C   0  0  0  0  0  0  0  0  0  0  0  0
    3.7613   -9.5280   16.9755 C   0  0  0  0  0  0  0  0  0  0  0  0
    0.4290  -12.5802   18.8624 C   0  0  0  0  0  0  0  0  0  0  0  0
    2.6125   -9.2912   16.3035 C   0  0  0  0  0  0  0  0  0  0  0  0
    9.2818   -7.7824   18.3793 O   0  0  0  0  0  0  0  0  0  0  0  0
    1.4521  -10.8587   17.5833 C   0  0  0  0  0  0  0  0  0  0  0  0
    6.9537   -6.5233   17.2364 C   0  0  0  0  0  0  0  0  0  0  0  0
  1  2  1  0
  1 18  1  0
  1 25  1  0
  3  9  4  0
  3 19  4  0
  4  7  4  0
  4 10  4  0
  4 33  4  0
  5 11  4  0
  5 14  4  0
  6 21  1  0
  6 22  1  0
  7 24  4  0
  8 26  1  0
  8 34  1  0
  9 14  4  0
 10 29  4  0
 11 13  1  0
 11 28  4  0
 12 21  1  0
 12 26  1  0
 12 29  1  0
 14 20  1  0
 15 22  1  0
 15 32  1  0
 15 34  1  0
 16 26  1  0
 17 31  4  0
 17 33  4  0
 19 28  4  0
 19 32  1  0
 22 23  1  0
 23 28  1  0
 24 30  4  0
 26 34  1  0
 27 30  4  0
 27 33  4  0
 29 31  4  0
M  END
$$$$

 Created by Python create_sdf_string function

 34 80  0  0  0  0  0  0  0  0999 V2000
    9.3808   -0.5801   25.8139 N   0  0  0  0  0  0  0  0  0  0  0  0
   10.3516   -6.0970   19.9086 C   0  0  0  0  0  0  0  0  0  0  0  0
    2.4927  -10.9435   18.5260 C   0  0  0  0  0  0  0  0  0  0  0  0
   10.1054   -3.3865   17.3890 P   0  0  0  0  0  0  0  0  0  0  0  0
    7.0217   -9.2703   15.0307 C   0  0  0  0  0  0  0  0  0  0  0  0
    2.6042  -12.3535   19.2988 C   0  0  0  0  0  0  0  0  0  0  0  0
    6.7119   -8.3472   19.5922 C   0  0  0  0  0  0  0  0  0  0  0  0
   10.8225   -4.4972   20.0537 C   0  0  0  0  0  0  0  0  0  0  0  0
    3.7418   -9.8205   18.2174 C   0  0  0  0  0  0  0  0  0  0  0  0
    9.7432   -3.9137   17.0248 C   0  0  0  0  0  0  0  0  0  0  0  0
    4.8259   -8.3268   15.7762 N   0  0  0  0  0  0  0  0  0  0  0  0
    9.2648   -3.9804   15.7786 N   0  0  0  0  0  0  0  0  0  0  0  0
   10.8780   -3.5111   19.1391 C   0  0  0  0  0  0  0  0  0  0  0  0
    8.3168   -7.7761   17.5400 C   0  0  0  0  0  0  0  0  0  0  0  0
    5.4053   -7.9540   18.5664 O   0  0  0  0  0  0  0  0  0  0  0  0
    8.6983   -0.9633   26.7314 C   0  0  0  0  0  0  0  0  0  0  0  0
   11.5585   -2.1247   19.4687 O   0  0  0  0  0  0  0  0  0  0  0  0
    5.9340   -9.2272   15.9855 C   0  0  0  0  0  0  0  0  0  0  0  0
    8.7019   -7.0224   15.8969 P   0  0  0  0  0  0  0  0  0  0  0  0
    1.4690  -12.1150   19.7524 C   0  0  0  0  0  0  0  0  0  0  0  0
    9.4943    0.5393   24.5410 C   0  0  0  0  0  0  0  0  0  0  0  0
    4.3420   -7.4202   16.7910 C   0  0  0  0  0  0  0  0  0  0  0  0
    0.5051  -11.8646   17.4616 N   0  0  0  0  0  0  0  0  0  0  0  0
    9.4982   -5.4546   17.2908 C   0  0  0  0  0  0  0  0  0  0  0  0
    3.5649   -9.1178   17.3035 C   0  0  0  0  0  0  0  0  0  0  0  0
    0.4880  -12.5055   19.0368 C   0  0  0  0  0  0  0  0  0  0  0  0
    2.4063   -9.1141   16.6312 C   0  0  0  0  0  0  0  0  0  0  0  0
    9.3904   -7.5007   18.3576 O   0  0  0  0  0  0  0  0  0  0  0  0
    1.7622  -10.8270   17.5943 C   0  0  0  0  0  0  0  0  0  0  0  0
    5.9957   -6.3276   16.9303 C   0  0  0  0  0  0  0  0  0  0  0  0
    9.7761   -2.5309   25.3725 He  0  0  0  0  0  0  0  0  0  0  0  0
    1.3975   -9.8974   16.2656 He  0  0  0  0  0  0  0  0  0  0  0  0
    9.9500   -6.4450   18.2994 He  0  0  0  0  0  0  0  0  0  0  0  0
    8.8109   -6.7396   16.1006 He  0  0  0  0  0  0  0  0  0  0  0  0
  1 21  1  0
  2  8  4  0
  2 19  3  0
  2 20  3  0
  2 22  1  0
  2 25  2  0
  3  9  4  0
  3 11  4  0
  3 18  3  0
  3 29  4  0
  4  6  3  0
  4 10  2  0
  4 19  4  0
  4 25  2  0
  5 16  4  0
  5 18  1  0
  5 20  4  0
  5 21  2  0
  5 22  3  0
  5 25  1  0
  5 29  1  0
  6  7  1  0
  6 20  4  0
  7 13  3  0
  7 15  1  0
  7 19  1  0
  7 20  3  0
  7 22  4  0
  7 25  4  0
  7 26  1  0
  7 29  2  0
  8 13  4  0
  8 19  3  0
  8 24  4  0
  9 18  4  0
  9 22  1  0
  9 25  4  0
 10 11  4  0
 10 12  1  0
 10 17  3  0
 10 18  1  0
 10 24  4  0
 10 30  4  0
 11 13  3  0
 11 16  2  0
 11 18  1  0
 11 19  1  0
 11 22  1  0
 11 26  3  0
 11 27  4  0
 11 30  3  0
 12 23  4  0
 13 15  4  0
 13 17  1  0
 13 22  3  0
 13 30  2  0
 14 19  1  0
 14 28  2  0
 15 20  2  0
 15 22  1  0
 15 24  1  0
 15 25  3  0
 16 17  2  0
 16 19  1  0
 16 22  3  0
 16 23  1  0
 17 22  3  0
 18 30  3  0
 19 20  4  0
 19 21  4  0
 20 30  4  0
 21 27  1  0
 22 27  2  0
 22 28  2  0
 23 26  4  0
 23 27  1  0
 23 29  4  0
 24 29  3  0
 25 27  4  0
 29 30  3  0
M  END
$$$$

 Created by Python create_sdf_string function

 34 37  0  0  0  0  0  0  0  0999 V2000
    9.3736   -0.9549   25.5490 N   0  0  0  0  0  0  0  0  0  0  0  0
    9.7305   -2.2009   25.0601 C   0  0  0  0  0  0  0  0  0  0  0  0
   10.3690   -5.8338   19.5732 C   0  0  0  0  0  0  0  0  0  0  0  0
    2.6035  -10.9190   18.3631 C   0  0  0  0  0  0  0  0  0  0  0  0
   10.4263   -3.3773   17.7903 C   0  0  0  0  0  0  0  0  0  0  0  0
    7.1803   -8.7931   15.3661 C   0  0  0  0  0  0  0  0  0  0  0  0
    2.5810  -11.8435   19.4731 C   0  0  0  0  0  0  0  0  0  0  0  0
    6.8304   -8.2740   18.0998 C   0  0  0  0  0  0  0  0  0  0  0  0
   10.7926   -4.6587   19.8683 C   0  0  0  0  0  0  0  0  0  0  0  0
    3.6989  -10.1126   18.0262 C   0  0  0  0  0  0  0  0  0  0  0  0
    9.7918   -4.2446   16.9858 C   0  0  0  0  0  0  0  0  0  0  0  0
    4.8003   -8.6179   16.3809 N   0  0  0  0  0  0  0  0  0  0  0  0
    9.3511   -3.7445   15.7622 O   0  0  0  0  0  0  0  0  0  0  0  0
   10.8292   -3.5244   19.0558 C   0  0  0  0  0  0  0  0  0  0  0  0
    8.1804   -7.8335   17.6486 C   0  0  0  0  0  0  0  0  0  0  0  0
    5.6038   -7.7742   18.6168 O   0  0  0  0  0  0  0  0  0  0  0  0
    1.3970   -9.9064   16.5813 C   0  0  0  0  0  0  0  0  0  0  0  0
    8.5882   -0.8548   26.7216 C   0  0  0  0  0  0  0  0  0  0  0  0
    9.7825   -6.1893   18.3982 C   0  0  0  0  0  0  0  0  0  0  0  0
   11.3305   -2.4137   19.5313 O   0  0  0  0  0  0  0  0  0  0  0  0
    5.8637   -9.2694   15.6608 C   0  0  0  0  0  0  0  0  0  0  0  0
    8.0804   -7.6624   16.3013 C   0  0  0  0  0  0  0  0  0  0  0  0
    8.8735   -6.3182   16.1243 C   0  0  0  0  0  0  0  0  0  0  0  0
    1.5187  -12.6052   19.6707 C   0  0  0  0  0  0  0  0  0  0  0  0
    9.4230    0.1644   24.6205 C   0  0  0  0  0  0  0  0  0  0  0  0
    5.0406   -7.4053   17.0407 C   0  0  0  0  0  0  0  0  0  0  0  0
    0.4016  -11.6789   17.8274 N   0  0  0  0  0  0  0  0  0  0  0  0
    9.5160   -5.5402   17.2562 C   0  0  0  0  0  0  0  0  0  0  0  0
    3.6141   -9.2720   17.0337 C   0  0  0  0  0  0  0  0  0  0  0  0
    0.4457  -12.5130   18.8626 C   0  0  0  0  0  0  0  0  0  0  0  0
    2.5081   -9.0696   16.3675 C   0  0  0  0  0  0  0  0  0  0  0  0
    9.2581   -7.5531   18.3226 O   0  0  0  0  0  0  0  0  0  0  0  0
    1.4646  -10.8593   17.5831 C   0  0  0  0  0  0  0  0  0  0  0  0
    6.3749   -6.7139   16.6232 C   0  0  0  0  0  0  0  0  0  0  0  0
  1  2  1  0
  1 18  1  0
  1 25  1  0
  3  9  4  0
  3 19  4  0
  4  7  4  0
  4 10  4  0
  4 33  4  0
  5 11  4  0
  5 14  4  0
  6 21  1  0
  6 22  1  0
  7 24  4  0
  8 15  1  0
  8 16  1  0
  9 14  4  0
 10 29  4  0
 11 13  1  0
 11 28  4  0
 12 21  1  0
 12 26  1  0
 12 29  1  0
 14 20  1  0
 15 22  1  0
 15 32  1  0
 16 26  1  0
 17 31  4  0
 17 33  4  0
 19 28  4  0
 19 32  1  0
 22 23  1  0
 23 28  1  0
 24 30  4  0
 26 34  1  0
 27 30  4  0
 27 33  4  0
 29 31  4  0
M  END
$$$$

 Created by Python create_sdf_string function

 34 92  0  0  0  0  0  0  0  0999 V2000
    9.5654   -1.1984   25.4214 N   0  0  0  0  0  0  0  0  0  0  0  0
    9.5143   -2.1824   24.7523 C   0  0  0  0  0  0  0  0  0  0  0  0
   10.3340   -5.7398   19.3212 C   0  0  0  0  0  0  0  0  0  0  0  0
    2.3787  -11.2966   18.4749 C   0  0  0  0  0  0  0  0  0  0  0  0
   10.4130   -3.2301   17.4588 C   0  0  0  0  0  0  0  0  0  0  0  0
    2.4741  -11.8598   19.3231 C   0  0  0  0  0  0  0  0  0  0  0  0
    6.0887   -7.6873   18.8190 C   0  0  0  0  0  0  0  0  0  0  0  0
   10.3685   -4.3952   20.4928 C   0  0  0  0  0  0  0  0  0  0  0  0
    4.0003  -10.3570   17.9571 C   0  0  0  0  0  0  0  0  0  0  0  0
    9.9697   -4.5825   17.3213 C   0  0  0  0  0  0  0  0  0  0  0  0
    4.1976   -7.8635   15.3968 C   0  0  0  0  0  0  0  0  0  0  0  0
    9.9589   -3.5034   15.9350 O   0  0  0  0  0  0  0  0  0  0  0  0
   10.4557   -3.5039   18.9854 C   0  0  0  0  0  0  0  0  0  0  0  0
    8.0190   -7.9076   17.8160 C   0  0  0  0  0  0  0  0  0  0  0  0
    1.2529  -10.0761   16.5785 C   0  0  0  0  0  0  0  0  0  0  0  0
    8.6599   -1.0075   26.8186 C   0  0  0  0  0  0  0  0  0  0  0  0
    9.9366   -6.0217   18.4392 C   0  0  0  0  0  0  0  0  0  0  0  0
   11.1560   -2.2375   19.1631 O   0  0  0  0  0  0  0  0  0  0  0  0
    5.7728   -9.5266   15.3439 C   0  0  0  0  0  0  0  0  0  0  0  0
    8.5319   -8.1386   15.8752 F   0  0  0  0  0  0  0  0  0  0  0  0
    9.4349   -5.4871   16.1604 P   0  0  0  0  0  0  0  0  0  0  0  0
    1.6203  -12.8220   19.7846 C   0  0  0  0  0  0  0  0  0  0  0  0
    9.4025    0.2502   24.5965 F   0  0  0  0  0  0  0  0  0  0  0  0
   -0.0800  -11.9153   17.8189 N   0  0  0  0  0  0  0  0  0  0  0  0
    9.3082   -5.5837   16.9343 B   0  0  0  0  0  0  0  0  0  0  0  0
    3.3528   -8.9373   17.4367 C   0  0  0  0  0  0  0  0  0  0  0  0
    0.3195  -12.9395   19.0801 B   0  0  0  0  0  0  0  0  0  0  0  0
    2.4963   -8.9727   16.7580 C   0  0  0  0  0  0  0  0  0  0  0  0
    8.9623   -7.2691   18.1603 O   0  0  0  0  0  0  0  0  0  0  0  0
    1.6044  -10.6978   17.7622 C   0  0  0  0  0  0  0  0  0  0  0  0
    7.0150   -6.3395   17.2698 C   0  0  0  0  0  0  0  0  0  0  0  0
    6.9791   -9.0103   15.5783 He  0  0  0  0  0  0  0  0  0  0  0  0
    6.0492   -7.7561   18.4386 He  0  0  0  0  0  0  0  0  0  0  0  0
    5.0524   -8.3548   17.0285 He  0  0  0  0  0  0  0  0  0  0  0  0
  1  2  1  0
  1 16  1  0
  1 21  2  0
  1 29  3  0
  2  5  1  0
  2  7  1  0
  2 14  2  0
  2 19  3  0
  2 20  3  0
  2 22  3  0
  2 26  2  0
  3  7  1  0
  3  8  4  0
  3 29  1  0
  3 31  1  0
  4  6  4  0
  4  9  1  0
  4 16  1  0
  4 20  2  0
  4 21  2  0
  4 28  2  0
  4 30  4  0
  5  8  2  0
  5  9  4  0
  5 10  4  0
  5 13  4  0
  5 18  3  0
  5 20  1  0
  5 30  3  0
  5 31  3  0
  6 22  4  0
  6 24  4  0
  6 30  3  0
  7 11  1  0
  7 17  2  0
  7 21  2  0
  7 22  3  0
  8 11  1  0
  8 13  4  0
  8 23  2  0
  8 31  3  0
  9 15  1  0
  9 24  4  0
  9 26  1  0
  9 28  3  0
  9 30  4  0
 10 12  1  0
 10 25  4  0
 11 17  4  0
 11 19  3  0
 11 26  1  0
 11 27  3  0
 12 21  2  0
 12 29  3  0
 13 18  1  0
 13 20  4  0
 13 21  1  0
 13 25  4  0
 14 18  2  0
 14 21  1  0
 14 28  3  0
 14 29  1  0
 15 20  1  0
 15 23  4  0
 15 30  4  0
 16 19  2  0
 16 20  4  0
 17 19  3  0
 17 21  2  0
 17 25  4  0
 17 29  1  0
 18 25  1  0
 18 28  3  0
 18 31  3  0
 19 29  2  0
 19 30  2  0
 20 25  3  0
 20 28  3  0
 20 30  2  0
 20 31  4  0
 21 23  4  0
 21 26  4  0
 21 30  3  0
 22 27  4  0
 23 27  3  0
 23 30  2  0
 23 31  3  0
 24 30  4  0
 24 31  4  0
 26 29  4  0
 27 30  2  0
 30 31  3  0
M  END
$$$$

 Created by Python create_sdf_string function

 34 37  0  0  0  0  0  0  0  0999 V2000
    9.3770   -1.0229   25.3780 N   0  0  0  0  0  0  0  0  0  0  0  0
    9.6110   -2.2335   24.6974 C   0  0  0  0  0  0  0  0  0  0  0  0
   10.0808   -5.7990   19.5630 C   0  0  0  0  0  0  0  0  0  0  0  0
    2.4932  -11.0362   18.3871 C   0  0  0  0  0  0  0  0  0  0  0  0
   10.4956   -3.4012   17.7864 C   0  0  0  0  0  0  0  0  0  0  0  0
    7.1666   -9.0181   15.3950 C   0  0  0  0  0  0  0  0  0  0  0  0
    2.6194  -11.9773   19.4234 C   0  0  0  0  0  0  0  0  0  0  0  0
    6.4833   -8.1151   18.5028 C   0  0  0  0  0  0  0  0  0  0  0  0
   10.5533   -4.5575   19.9362 C   0  0  0  0  0  0  0  0  0  0  0  0
    3.6224  -10.1383   17.9894 C   0  0  0  0  0  0  0  0  0  0  0  0
    9.9819   -4.1942   16.9375 C   0  0  0  0  0  0  0  0  0  0  0  0
    4.3980   -8.2650   16.3472 C   0  0  0  0  0  0  0  0  0  0  0  0
    9.9148   -3.7384   15.6861 O   0  0  0  0  0  0  0  0  0  0  0  0
   10.7138   -3.4354   19.0913 C   0  0  0  0  0  0  0  0  0  0  0  0
    8.0451   -7.6918   17.5488 C   0  0  0  0  0  0  0  0  0  0  0  0
    5.7802   -7.7018   18.2117 C   0  0  0  0  0  0  0  0  0  0  0  0
    1.1622   -9.9608   16.7680 C   0  0  0  0  0  0  0  0  0  0  0  0
    8.7284   -1.0256   26.6319 C   0  0  0  0  0  0  0  0  0  0  0  0
    9.6005   -6.1151   18.3461 C   0  0  0  0  0  0  0  0  0  0  0  0
   11.2131   -2.2469   19.5664 O   0  0  0  0  0  0  0  0  0  0  0  0
    5.8292   -9.1673   15.6814 C   0  0  0  0  0  0  0  0  0  0  0  0
    8.1290   -8.3298   16.0803 C   0  0  0  0  0  0  0  0  0  0  0  0
    8.8798   -5.7994   15.9965 O   0  0  0  0  0  0  0  0  0  0  0  0
    1.5832  -12.7793   19.7061 C   0  0  0  0  0  0  0  0  0  0  0  0
    9.3692    0.1224   24.6194 C   0  0  0  0  0  0  0  0  0  0  0  0
    5.5115   -7.9488   16.7242 N   0  0  0  0  0  0  0  0  0  0  0  0
    0.2776  -11.8460   18.0078 N   0  0  0  0  0  0  0  0  0  0  0  0
    9.4807   -5.4146   17.1503 C   0  0  0  0  0  0  0  0  0  0  0  0
    3.4057   -9.2482   16.9997 C   0  0  0  0  0  0  0  0  0  0  0  0
    0.4606  -12.7369   19.0052 C   0  0  0  0  0  0  0  0  0  0  0  0
    2.2477   -9.1059   16.4568 C   0  0  0  0  0  0  0  0  0  0  0  0
    9.1120   -7.4829   18.1866 O   0  0  0  0  0  0  0  0  0  0  0  0
    1.2952  -10.9602   17.7066 C   0  0  0  0  0  0  0  0  0  0  0  0
    6.7153   -6.8143   16.8052 C   0  0  0  0  0  0  0  0  0  0  0  0
  1  2  1  0
  1 18  1  0
  1 25  1  0
  3  9  4  0
  3 19  4  0
  4  7  4  0
  4 10  4  0
  4 33  4  0
  5 11  4  0
  5 14  4  0
  6 21  1  0
  6 22  1  0
  7 24  4  0
  8 15  1  0
  8 16  1  0
  9 14  4  0
 10 29  4  0
 11 13  1  0
 11 28  4  0
 12 26  1  0
 12 29  1  0
 14 20  1  0
 15 22  1  0
 15 32  1  0
 15 34  1  0
 16 26  1  0
 17 31  4  0
 17 33  4  0
 19 28  4  0
 19 32  1  0
 21 26  1  0
 23 28  1  0
 24 30  4  0
 26 34  1  0
 27 30  4  0
 27 33  4  0
 29 31  4  0
M  END
$$$$

 Created by Python create_sdf_string function

 34 71  0  0  0  0  0  0  0  0999 V2000
    9.2712   -0.8581   25.2159 N   0  0  0  0  0  0  0  0  0  0  0  0
    9.4272   -2.0197   24.9107 C   0  0  0  0  0  0  0  0  0  0  0  0
    2.6218  -11.1098   18.4670 C   0  0  0  0  0  0  0  0  0  0  0  0
   10.1852   -3.2033   17.7284 C   0  0  0  0  0  0  0  0  0  0  0  0
    2.4029  -12.1716   19.3170 C   0  0  0  0  0  0  0  0  0  0  0  0
   10.7540   -4.6749   20.0616 C   0  0  0  0  0  0  0  0  0  0  0  0
    3.5854  -10.1504   17.6506 C   0  0  0  0  0  0  0  0  0  0  0  0
    9.9097   -4.1829   16.9141 C   0  0  0  0  0  0  0  0  0  0  0  0
   10.1056   -3.7447   15.7322 O   0  0  0  0  0  0  0  0  0  0  0  0
   10.9054   -2.9550   19.2690 F   0  0  0  0  0  0  0  0  0  0  0  0
    8.0174   -7.2478   17.4555 C   0  0  0  0  0  0  0  0  0  0  0  0
    5.7523   -7.5631   18.1845 C   0  0  0  0  0  0  0  0  0  0  0  0
    1.1563  -10.3350   16.6939 C   0  0  0  0  0  0  0  0  0  0  0  0
    8.7469   -1.2461   26.3063 C   0  0  0  0  0  0  0  0  0  0  0  0
    9.4224   -5.6920   18.4354 C   0  0  0  0  0  0  0  0  0  0  0  0
   11.5912   -2.2360   19.5348 O   0  0  0  0  0  0  0  0  0  0  0  0
    5.8636   -8.9962   15.5079 C   0  0  0  0  0  0  0  0  0  0  0  0
    8.7344   -6.8039   16.7561 O   0  0  0  0  0  0  0  0  0  0  0  0
    1.2970  -12.3889   19.6950 S   0  0  0  0  0  0  0  0  0  0  0  0
    9.4036   -0.0367   24.9623 C   0  0  0  0  0  0  0  0  0  0  0  0
    6.3723   -8.0383   16.0553 N   0  0  0  0  0  0  0  0  0  0  0  0
    0.3664  -11.7946   18.0188 N   0  0  0  0  0  0  0  0  0  0  0  0
    9.5652   -5.5197   17.5032 C   0  0  0  0  0  0  0  0  0  0  0  0
    3.6073   -9.3093   16.9117 C   0  0  0  0  0  0  0  0  0  0  0  0
    0.0939  -12.6728   18.9017 C   0  0  0  0  0  0  0  0  0  0  0  0
    2.1201   -9.3336   16.0648 F   0  0  0  0  0  0  0  0  0  0  0  0
    8.9521   -7.3887   18.1785 O   0  0  0  0  0  0  0  0  0  0  0  0
    1.3579  -11.2478   17.8377 C   0  0  0  0  0  0  0  0  0  0  0  0
    6.7366   -7.2147   17.2821 C   0  0  0  0  0  0  0  0  0  0  0  0
    9.8006   -5.8935   19.7356 He  0  0  0  0  0  0  0  0  0  0  0  0
    7.4053   -9.1169   15.7392 He  0  0  0  0  0  0  0  0  0  0  0  0
    6.3784   -8.3518   19.5248 He  0  0  0  0  0  0  0  0  0  0  0  0
    4.6797   -8.5277   16.2228 He  0  0  0  0  0  0  0  0  0  0  0  0
    8.8801   -8.2884   15.2130 He  0  0  0  0  0  0  0  0  0  0  0  0
  1 14  1  0
  1 20  1  0
  1 27  2  0
  1 29  4  0
  2 16  3  0
  2 18  3  0
  2 21  2  0
  3 18  3  0
  3 21  3  0
  3 28  4  0
  4  7  3  0
  4 10  4  0
  4 12  3  0
  4 17  1  0
  4 18  2  0
  4 19  3  0
  6 10  4  0
  6 14  4  0
  6 17  4  0
  6 21  1  0
  7 18  2  0
  7 19  4  0
  7 28  3  0
  8  9  1  0
  8 29  4  0
  9 17  4  0
  9 21  4  0
  9 26  3  0
 10 14  3  0
 10 16  1  0
 10 21  4  0
 10 27  2  0
 11 15  4  0
 11 21  3  0
 11 27  1  0
 11 29  1  0
 12 14  3  0
 12 18  1  0
 12 22  4  0
 12 28  3  0
 13 21  4  0
 13 25  4  0
 13 28  4  0
 15 16  1  0
 15 17  4  0
 15 19  1  0
 15 20  3  0
 15 23  4  0
 15 25  1  0
 15 27  1  0
 16 17  3  0
 16 21  3  0
 16 24  3  0
 18 21  2  0
 18 22  4  0
 18 23  1  0
 18 26  2  0
 18 27  1  0
 19 25  4  0
 20 22  1  0
 20 26  3  0
 21 28  4  0
 22 24  4  0
 22 25  4  0
 22 28  4  0
 22 29  1  0
 23 24  3  0
 24 25  1  0
 24 26  4  0
 25 29  3  0
 27 29  1  0
M  END
$$$$

 Created by Python create_sdf_string function

 34 37  0  0  0  0  0  0  0  0999 V2000
    9.2490   -1.0505   25.3246 N   0  0  0  0  0  0  0  0  0  0  0  0
    9.6607   -2.1077   24.6271 C   0  0  0  0  0  0  0  0  0  0  0  0
   10.1049   -5.6327   19.7553 C   0  0  0  0  0  0  0  0  0  0  0  0
    2.4566  -11.0262   18.3517 C   0  0  0  0  0  0  0  0  0  0  0  0
   10.6750   -3.2252   17.8102 C   0  0  0  0  0  0  0  0  0  0  0  0
    7.5116   -8.9580   15.2681 C   0  0  0  0  0  0  0  0  0  0  0  0
    2.4901  -11.9152   19.4980 C   0  0  0  0  0  0  0  0  0  0  0  0
    5.9891   -8.2872   19.1726 O   0  0  0  0  0  0  0  0  0  0  0  0
   10.5850   -4.4261   20.0230 C   0  0  0  0  0  0  0  0  0  0  0  0
    3.5614  -10.2332   17.9130 C   0  0  0  0  0  0  0  0  0  0  0  0
   10.0715   -4.0610   16.8649 C   0  0  0  0  0  0  0  0  0  0  0  0
    4.4019   -8.3178   16.4353 C   0  0  0  0  0  0  0  0  0  0  0  0
    9.9367   -3.7379   15.5920 O   0  0  0  0  0  0  0  0  0  0  0  0
   10.8596   -3.3784   19.2000 C   0  0  0  0  0  0  0  0  0  0  0  0
    8.0829   -7.5907   17.2170 C   0  0  0  0  0  0  0  0  0  0  0  0
    5.9913   -7.8283   18.1210 C   0  0  0  0  0  0  0  0  0  0  0  0
    1.1919  -10.0856   16.6072 C   0  0  0  0  0  0  0  0  0  0  0  0
    8.5963   -1.1856   26.5004 C   0  0  0  0  0  0  0  0  0  0  0  0
    9.5916   -5.9752   18.4453 C   0  0  0  0  0  0  0  0  0  0  0  0
   11.4213   -2.2618   19.7829 O   0  0  0  0  0  0  0  0  0  0  0  0
    6.2024   -9.0990   15.4860 C   0  0  0  0  0  0  0  0  0  0  0  0
    8.4778   -8.1732   15.6988 C   0  0  0  0  0  0  0  0  0  0  0  0
    8.9889   -5.9434   16.3177 O   0  0  0  0  0  0  0  0  0  0  0  0
    1.5219  -12.5986   19.7175 C   0  0  0  0  0  0  0  0  0  0  0  0
    9.3744    0.1625   24.7494 C   0  0  0  0  0  0  0  0  0  0  0  0
    5.7178   -8.2336   16.6759 N   0  0  0  0  0  0  0  0  0  0  0  0
    0.2442  -11.7694   18.0152 N   0  0  0  0  0  0  0  0  0  0  0  0
    9.5668   -5.3401   17.2508 C   0  0  0  0  0  0  0  0  0  0  0  0
    3.4435   -9.3284   16.8887 C   0  0  0  0  0  0  0  0  0  0  0  0
    0.3618  -12.5733   19.0378 C   0  0  0  0  0  0  0  0  0  0  0  0
    2.2719   -9.3230   16.2729 C   0  0  0  0  0  0  0  0  0  0  0  0
    8.8300   -7.3214   18.2403 O   0  0  0  0  0  0  0  0  0  0  0  0
    1.2671  -10.9705   17.6461 C   0  0  0  0  0  0  0  0  0  0  0  0
    6.6256   -7.4579   17.2291 C   0  0  0  0  0  0  0  0  0  0  0  0
  1  2  1  0
  1 18  1  0
  1 25  1  0
  3  9  4  0
  3 19  4  0
  4  7  4  0
  4 10  4  0
  4 33  4  0
  5 11  4  0
  5 14  4  0
  6 21  1  0
  6 22  1  0
  7 24  4  0
  8 16  2  0
  9 14  4  0
 10 29  4  0
 11 13  1  0
 11 28  4  0
 12 26  1  0
 12 29  1  0
 14 20  1  0
 15 22  1  0
 15 32  1  0
 15 34  1  0
 16 26  1  0
 16 34  1  0
 17 31  4  0
 17 33  4  0
 19 28  4  0
 19 32  1  0
 21 26  1  0
 23 28  1  0
 24 30  4  0
 26 34  1  0
 27 30  4  0
 27 33  4  0
 29 31  4  0
M  END
$$$$

 Created by Python create_sdf_string function

 34 38  0  0  0  0  0  0  0  0999 V2000
    8.9478   -1.0454   25.6336 N   0  0  0  0  0  0  0  0  0  0  0  0
   10.0399   -5.5303   19.7115 C   0  0  0  0  0  0  0  0  0  0  0  0
    7.1860   -9.6594   15.1743 C   0  0  0  0  0  0  0  0  0  0  0  0
    2.3840  -12.5693   19.5981 C   0  0  0  0  0  0  0  0  0  0  0  0
    6.1746   -8.9375   19.6380 C   0  0  0  0  0  0  0  0  0  0  0  0
   10.4472   -4.1589   20.2562 C   0  0  0  0  0  0  0  0  0  0  0  0
    3.7303  -10.0958   17.2475 C   0  0  0  0  0  0  0  0  0  0  0  0
    9.9943   -3.9912   15.3219 O   0  0  0  0  0  0  0  0  0  0  0  0
   11.0950   -3.5608   19.3145 C   0  0  0  0  0  0  0  0  0  0  0  0
    8.0291   -7.7396   17.2292 C   0  0  0  0  0  0  0  0  0  0  0  0
    6.0464   -7.6654   17.9662 C   0  0  0  0  0  0  0  0  0  0  0  0
    1.3855  -10.0605   16.7753 C   0  0  0  0  0  0  0  0  0  0  0  0
    8.6281   -1.0898   26.7370 C   0  0  0  0  0  0  0  0  0  0  0  0
    9.4815   -5.7280   18.1923 C   0  0  0  0  0  0  0  0  0  0  0  0
   11.5591   -1.9574   19.1435 O   0  0  0  0  0  0  0  0  0  0  0  0
    9.0024   -5.8455   16.4940 O   0  0  0  0  0  0  0  0  0  0  0  0
    1.6209  -12.4842   19.5035 C   0  0  0  0  0  0  0  0  0  0  0  0
    9.0731    0.7556   24.8009 C   0  0  0  0  0  0  0  0  0  0  0  0
    0.2426  -11.6575   18.0338 N   0  0  0  0  0  0  0  0  0  0  0  0
    3.2379   -9.2226   16.8943 C   0  0  0  0  0  0  0  0  0  0  0  0
    0.5213  -12.4396   18.6357 C   0  0  0  0  0  0  0  0  0  0  0  0
    2.3300   -9.2471   16.2687 C   0  0  0  0  0  0  0  0  0  0  0  0
    8.6711   -6.9418   18.1805 O   0  0  0  0  0  0  0  0  0  0  0  0
    1.0880  -10.9679   17.6127 C   0  0  0  0  0  0  0  0  0  0  0  0
    9.6251   -2.0036   24.4492 He  0  0  0  0  0  0  0  0  0  0  0  0
    2.3555  -10.8678   18.7638 He  0  0  0  0  0  0  0  0  0  0  0  0
   10.7892   -3.0963   17.7398 He  0  0  0  0  0  0  0  0  0  0  0  0
   10.0253   -4.1650   16.8788 He  0  0  0  0  0  0  0  0  0  0  0  0
    4.4309   -8.8398   16.1923 He  0  0  0  0  0  0  0  0  0  0  0  0
    6.3547   -8.8267   15.5579 He  0  0  0  0  0  0  0  0  0  0  0  0
    8.8939   -7.8893   14.8314 He  0  0  0  0  0  0  0  0  0  0  0  0
    4.8771   -8.0025   17.9146 He  0  0  0  0  0  0  0  0  0  0  0  0
    9.0343   -5.5655   17.2799 He  0  0  0  0  0  0  0  0  0  0  0  0
    7.5771   -6.7963   17.2310 He  0  0  0  0  0  0  0  0  0  0  0  0
  1  8  3  0
  1 13  1  0
  1 18  1  0
  2  6  4  0
  2 14  4  0
  2 16  2  0
  2 20  3  0
  3  4  3  0
  3  5  3  0
  4 10  4  0
  4 17  4  0
  5  7  3  0
  5  8  1  0
  5 13  4  0
  5 17  3  0
  5 19  3  0
  5 23  1  0
  6  9  4  0
  6 15  2  0
  7 20  4  0
  8 20  1  0
  8 23  2  0
  9 15  1  0
  9 16  3  0
 10 23  1  0
 12 19  1  0
 12 21  4  0
 12 22  4  0
 12 24  4  0
 14 23  1  0
 16 17  3  0
 16 19  2  0
 16 23  4  0
 17 21  4  0
 19 21  4  0
 19 24  4  0
 20 22  4  0
 20 24  4  0
M  END
$$$$

 Created by Python create_sdf_string function

 34 36  0  0  0  0  0  0  0  0999 V2000
    9.0764   -0.8720   25.3717 N   0  0  0  0  0  0  0  0  0  0  0  0
    9.5713   -1.8684   24.4980 C   0  0  0  0  0  0  0  0  0  0  0  0
    9.9136   -5.4801   19.5901 C   0  0  0  0  0  0  0  0  0  0  0  0
    2.4024  -11.0353   18.3615 C   0  0  0  0  0  0  0  0  0  0  0  0
   10.7030   -3.2351   17.6922 C   0  0  0  0  0  0  0  0  0  0  0  0
    7.2149   -8.9933   15.1329 C   0  0  0  0  0  0  0  0  0  0  0  0
    2.4688  -11.9936   19.4568 C   0  0  0  0  0  0  0  0  0  0  0  0
    6.1669   -8.2575   19.0308 O   0  0  0  0  0  0  0  0  0  0  0  0
   10.5395   -4.3191   19.8936 C   0  0  0  0  0  0  0  0  0  0  0  0
    3.5311  -10.2146   17.9254 C   0  0  0  0  0  0  0  0  0  0  0  0
   10.1291   -4.0801   16.8953 C   0  0  0  0  0  0  0  0  0  0  0  0
    4.6491   -8.7878   16.3889 O   0  0  0  0  0  0  0  0  0  0  0  0
   10.0550   -3.7217   15.5573 O   0  0  0  0  0  0  0  0  0  0  0  0
   10.8795   -3.3061   19.0330 C   0  0  0  0  0  0  0  0  0  0  0  0
    8.2372   -7.6103   17.0547 C   0  0  0  0  0  0  0  0  0  0  0  0
    6.1189   -7.7938   17.9214 C   0  0  0  0  0  0  0  0  0  0  0  0
    1.1730   -9.9038   16.6815 C   0  0  0  0  0  0  0  0  0  0  0  0
    8.6111   -1.1310   26.6702 C   0  0  0  0  0  0  0  0  0  0  0  0
    9.4638   -5.8068   18.3820 C   0  0  0  0  0  0  0  0  0  0  0  0
   11.4435   -2.2376   19.5181 O   0  0  0  0  0  0  0  0  0  0  0  0
    6.1313   -9.0358   15.6291 C   0  0  0  0  0  0  0  0  0  0  0  0
    8.4716   -8.1812   15.4010 C   0  0  0  0  0  0  0  0  0  0  0  0
    8.9387   -5.6634   16.0192 O   0  0  0  0  0  0  0  0  0  0  0  0
    1.4288  -12.8070   19.6701 C   0  0  0  0  0  0  0  0  0  0  0  0
    9.0230    0.4908   24.8437 C   0  0  0  0  0  0  0  0  0  0  0  0
    5.4726   -8.2098   17.1818 C   0  0  0  0  0  0  0  0  0  0  0  0
    0.2361  -11.6938   17.9737 N   0  0  0  0  0  0  0  0  0  0  0  0
    9.5193   -5.2571   17.1552 C   0  0  0  0  0  0  0  0  0  0  0  0
    3.4107   -9.4547   16.8772 C   0  0  0  0  0  0  0  0  0  0  0  0
    0.3554  -12.6478   18.9478 C   0  0  0  0  0  0  0  0  0  0  0  0
    2.2860   -9.2496   16.2419 C   0  0  0  0  0  0  0  0  0  0  0  0
    8.7447   -7.0526   18.2166 O   0  0  0  0  0  0  0  0  0  0  0  0
    1.2869  -10.8711   17.6729 C   0  0  0  0  0  0  0  0  0  0  0  0
    6.8284   -7.5760   17.2092 C   0  0  0  0  0  0  0  0  0  0  0  0
  1  2  1  0
  1 18  1  0
  1 25  1  0
  3  9  4  0
  3 19  4  0
  4  7  4  0
  4 10  4  0
  4 33  4  0
  5 11  4  0
  5 14  4  0
  6 21  1  0
  6 22  1  0
  7 24  4  0
  8 16  2  0
  9 14  4  0
 10 29  4  0
 11 13  1  0
 11 28  4  0
 12 21  4  0
 12 26  4  0
 12 29  1  0
 14 20  1  0
 15 22  1  0
 15 32  1  0
 15 34  1  0
 16 26  1  0
 16 34  1  0
 17 31  4  0
 17 33  4  0
 19 28  4  0
 19 32  1  0
 23 28  1  0
 24 30  4  0
 27 30  4  0
 27 33  4  0
 29 31  4  0
M  END
$$$$

 Created by Python create_sdf_string function

 34 76  0  0  0  0  0  0  0  0999 V2000
    9.2423   -0.8936   25.1237 N   0  0  0  0  0  0  0  0  0  0  0  0
    9.3389   -1.6940   24.7056 C   0  0  0  0  0  0  0  0  0  0  0  0
    9.8001   -5.5832   19.7519 C   0  0  0  0  0  0  0  0  0  0  0  0
   10.7152   -3.0935   17.6193 C   0  0  0  0  0  0  0  0  0  0  0  0
    7.3325   -8.9094   15.3009 C   0  0  0  0  0  0  0  0  0  0  0  0
    2.4300  -11.9347   19.8518 C   0  0  0  0  0  0  0  0  0  0  0  0
    5.6809   -7.7770   19.5741 O   0  0  0  0  0  0  0  0  0  0  0  0
   10.6670   -4.2756   19.7832 C   0  0  0  0  0  0  0  0  0  0  0  0
    3.4060  -10.0863   17.8058 N   0  0  0  0  0  0  0  0  0  0  0  0
   10.1534   -3.8377   16.6341 C   0  0  0  0  0  0  0  0  0  0  0  0
    3.9560   -8.4859   16.8951 Br  0  0  0  0  0  0  0  0  0  0  0  0
   10.1475   -4.1413   15.0609 O   0  0  0  0  0  0  0  0  0  0  0  0
   10.9429   -3.4162   18.8817 C   0  0  0  0  0  0  0  0  0  0  0  0
    7.6520   -7.5712   17.0816 C   0  0  0  0  0  0  0  0  0  0  0  0
    1.4657   -9.7607   16.5784 C   0  0  0  0  0  0  0  0  0  0  0  0
    8.7238   -1.5185   26.5686 Cl  0  0  0  0  0  0  0  0  0  0  0  0
    9.5265   -5.5927   18.7960 C   0  0  0  0  0  0  0  0  0  0  0  0
    6.4488   -8.6758   15.7215 C   0  0  0  0  0  0  0  0  0  0  0  0
    7.1103   -9.1942   15.2086 P   0  0  0  0  0  0  0  0  0  0  0  0
   10.2348   -6.3144   15.4099 O   0  0  0  0  0  0  0  0  0  0  0  0
    9.3869    0.5831   25.0776 C   0  0  0  0  0  0  0  0  0  0  0  0
    4.9525   -7.4962   18.7117 C   0  0  0  0  0  0  0  0  0  0  0  0
    0.0176  -12.0605   17.8823 N   0  0  0  0  0  0  0  0  0  0  0  0
    9.6185   -5.0270   17.0744 C   0  0  0  0  0  0  0  0  0  0  0  0
    0.0778  -12.5568   18.9837 C   0  0  0  0  0  0  0  0  0  0  0  0
    2.4513   -9.0081   16.1735 C   0  0  0  0  0  0  0  0  0  0  0  0
    8.6092   -7.5985   18.6636 O   0  0  0  0  0  0  0  0  0  0  0  0
    1.4392  -10.2999   17.7472 C   0  0  0  0  0  0  0  0  0  0  0  0
    6.7518   -7.0673   16.6207 C   0  0  0  0  0  0  0  0  0  0  0  0
    2.7278  -11.2457   18.0541 He  0  0  0  0  0  0  0  0  0  0  0  0
    6.0883   -7.9648   17.6487 He  0  0  0  0  0  0  0  0  0  0  0  0
   10.8592   -2.1863   19.5444 He  0  0  0  0  0  0  0  0  0  0  0  0
    1.5589  -12.7192   19.6728 He  0  0  0  0  0  0  0  0  0  0  0  0
    3.2773   -9.6283   16.8318 He  0  0  0  0  0  0  0  0  0  0  0  0
  1  2  1  0
  1  5  4  0
  1  7  3  0
  1 10  1  0
  1 16  1  0
  1 17  3  0
  1 21  1  0
  1 25  2  0
  1 28  2  0
  2  8  2  0
  2 21  2  0
  2 22  4  0
  2 25  4  0
  2 27  2  0
  2 29  3  0
  3  8  4  0
  3 11  4  0
  3 15  1  0
  3 17  4  0
  3 19  2  0
  4 10  2  0
  4 11  3  0
  4 13  4  0
  4 14  2  0
  4 19  2  0
  4 22  4  0
  5 19  1  0
  5 27  4  0
  5 28  1  0
  6 20  4  0
  6 22  4  0
  7 11  1  0
  7 12  4  0
  7 17  4  0
  7 22  2  0
  7 27  1  0
  7 29  3  0
  8 13  4  0
  8 18  1  0
  8 28  2  0
  8 29  1  0
  9 10  1  0
  9 22  4  0
 10 12  1  0
 10 13  2  0
 10 15  2  0
 10 19  3  0
 10 26  2  0
 11 12  2  0
 11 18  4  0
 12 18  2  0
 13 16  3  0
 14 19  4  0
 14 20  1  0
 14 21  4  0
 14 27  1  0
 15 16  3  0
 15 26  3  0
 15 29  2  0
 16 19  3  0
 17 19  1  0
 17 20  2  0
 17 24  4  0
 17 27  1  0
 19 26  3  0
 19 27  4  0
 20 21  1  0
 20 22  1  0
 20 24  1  0
 20 26  2  0
 20 27  1  0
 22 23  2  0
 22 27  1  0
 23 25  4  0
 24 27  1  0
 28 29  4  0
M  END
$$$$

 Created by Python create_sdf_string function

 34 34  0  0  0  0  0  0  0  0999 V2000
    9.2151   -0.8820   25.3182 N   0  0  0  0  0  0  0  0  0  0  0  0
    9.6455   -1.7337   24.3435 C   0  0  0  0  0  0  0  0  0  0  0  0
    9.9867   -5.4723   19.5250 C   0  0  0  0  0  0  0  0  0  0  0  0
    2.4072  -10.9372   18.4001 C   0  0  0  0  0  0  0  0  0  0  0  0
   10.7156   -3.2851   17.6063 C   0  0  0  0  0  0  0  0  0  0  0  0
    7.5971   -8.7466   15.2615 C   0  0  0  0  0  0  0  0  0  0  0  0
    2.4633  -11.8982   19.4501 C   0  0  0  0  0  0  0  0  0  0  0  0
    5.7794   -7.9537   19.4066 O   0  0  0  0  0  0  0  0  0  0  0  0
   10.4445   -4.3174   19.7828 C   0  0  0  0  0  0  0  0  0  0  0  0
    3.5339  -10.1062   18.0984 N   0  0  0  0  0  0  0  0  0  0  0  0
   10.2666   -4.1291   16.7390 C   0  0  0  0  0  0  0  0  0  0  0  0
    4.7097   -8.6022   16.7301 C   0  0  0  0  0  0  0  0  0  0  0  0
   10.2335   -3.9013   15.3776 O   0  0  0  0  0  0  0  0  0  0  0  0
   10.8053   -3.3349   18.9609 C   0  0  0  0  0  0  0  0  0  0  0  0
    8.1209   -7.3241   17.0415 C   0  0  0  0  0  0  0  0  0  0  0  0
    5.8852   -7.8527   17.3803 C   0  0  0  0  0  0  0  0  0  0  0  0
    1.2363   -9.9367   16.5683 C   0  0  0  0  0  0  0  0  0  0  0  0
    8.6931   -1.3739   26.4601 C   0  0  0  0  0  0  0  0  0  0  0  0
    9.5129   -5.8579   18.2853 C   0  0  0  0  0  0  0  0  0  0  0  0
   11.3605   -2.2388   19.5509 O   0  0  0  0  0  0  0  0  0  0  0  0
    5.8824   -8.8434   15.6392 C   0  0  0  0  0  0  0  0  0  0  0  0
    7.3862   -8.8908   15.4405 C   0  0  0  0  0  0  0  0  0  0  0  0
    9.2363   -6.0787   15.9267 O   0  0  0  0  0  0  0  0  0  0  0  0
    1.3971  -12.5980   19.6907 C   0  0  0  0  0  0  0  0  0  0  0  0
    9.2621    0.4574   25.0674 C   0  0  0  0  0  0  0  0  0  0  0  0
    5.6604   -7.8432   18.4816 C   0  0  0  0  0  0  0  0  0  0  0  0
    0.1804  -11.6726   17.9688 N   0  0  0  0  0  0  0  0  0  0  0  0
    9.6772   -5.3801   17.1166 C   0  0  0  0  0  0  0  0  0  0  0  0
    3.4902   -9.3093   17.0736 C   0  0  0  0  0  0  0  0  0  0  0  0
    0.3087  -12.5551   18.9370 C   0  0  0  0  0  0  0  0  0  0  0  0
    2.3858   -9.1961   16.2966 C   0  0  0  0  0  0  0  0  0  0  0  0
    8.6120   -7.1128   18.2937 O   0  0  0  0  0  0  0  0  0  0  0  0
    1.2571  -10.8634   17.6215 C   0  0  0  0  0  0  0  0  0  0  0  0
    6.8253   -7.3545   16.8080 C   0  0  0  0  0  0  0  0  0  0  0  0
  1  2  1  0
  1 18  1  0
  1 25  1  0
  3  9  4  0
  3 19  4  0
  4  7  4  0
  4 10  4  0
  4 33  4  0
  5 11  4  0
  5 14  4  0
  6 22  1  0
  7 24  4  0
  8 26  2  0
  9 14  4  0
 10 29  4  0
 11 13  1  0
 11 28  4  0
 12 16  1  0
 12 21  4  0
 12 29  1  0
 14 20  1  0
 15 32  1  0
 15 34  1  0
 16 26  1  0
 16 34  1  0
 17 31  4  0
 17 33  4  0
 19 28  4  0
 19 32  1  0
 23 28  1  0
 24 30  4  0
 27 30  4  0
 27 33  4  0
 29 31  4  0
M  END
$$$$

 Created by Python create_sdf_string function

 34 60  0  0  0  0  0  0  0  0999 V2000
    9.0137   -0.9249   25.3487 N   0  0  0  0  0  0  0  0  0  0  0  0
    9.6804   -1.9938   24.5355 C   0  0  0  0  0  0  0  0  0  0  0  0
    9.9676   -5.4808   19.3214 C   0  0  0  0  0  0  0  0  0  0  0  0
    2.4063  -10.8457   18.5869 C   0  0  0  0  0  0  0  0  0  0  0  0
   11.1108   -3.2262   17.5825 C   0  0  0  0  0  0  0  0  0  0  0  0
    8.0285   -8.8685   15.3869 N   0  0  0  0  0  0  0  0  0  0  0  0
    2.6075  -11.9306   19.8469 C   0  0  0  0  0  0  0  0  0  0  0  0
   10.0635   -4.5086   20.0046 C   0  0  0  0  0  0  0  0  0  0  0  0
    3.4381  -10.0700   18.1311 N   0  0  0  0  0  0  0  0  0  0  0  0
   10.2785   -4.0906   16.7275 C   0  0  0  0  0  0  0  0  0  0  0  0
    3.9822   -9.0499   16.9389 C   0  0  0  0  0  0  0  0  0  0  0  0
   10.7196   -4.0226   14.7765 O   0  0  0  0  0  0  0  0  0  0  0  0
   10.7964   -3.5230   18.8125 C   0  0  0  0  0  0  0  0  0  0  0  0
    6.4601   -8.1347   17.0571 C   0  0  0  0  0  0  0  0  0  0  0  0
    8.8054   -1.5562   26.7842 C   0  0  0  0  0  0  0  0  0  0  0  0
    9.8021   -5.6883   17.9335 B   0  0  0  0  0  0  0  0  0  0  0  0
   11.2228   -2.0061   19.7448 O   0  0  0  0  0  0  0  0  0  0  0  0
    6.0866   -9.2550   15.1544 C   0  0  0  0  0  0  0  0  0  0  0  0
    9.3252   -5.5142   15.3715 C   0  0  0  0  0  0  0  0  0  0  0  0
    1.3382  -12.6063   19.8315 C   0  0  0  0  0  0  0  0  0  0  0  0
    9.4404    0.2539   25.2373 C   0  0  0  0  0  0  0  0  0  0  0  0
    0.0195  -11.6044   18.1021 N   0  0  0  0  0  0  0  0  0  0  0  0
    9.9811   -5.7132   17.2660 C   0  0  0  0  0  0  0  0  0  0  0  0
    3.4806   -9.0376   17.1200 C   0  0  0  0  0  0  0  0  0  0  0  0
    0.9334  -12.8527   18.7991 C   0  0  0  0  0  0  0  0  0  0  0  0
    2.4400   -9.4584   16.2017 C   0  0  0  0  0  0  0  0  0  0  0  0
    8.8289   -7.2263   18.0640 O   0  0  0  0  0  0  0  0  0  0  0  0
    1.3507  -11.0280   17.4977 C   0  0  0  0  0  0  0  0  0  0  0  0
    7.7301   -7.2666   17.4439 C   0  0  0  0  0  0  0  0  0  0  0  0
    5.2221   -8.1503   19.5628 He  0  0  0  0  0  0  0  0  0  0  0  0
    8.1936   -7.2962   16.9820 He  0  0  0  0  0  0  0  0  0  0  0  0
    1.4417  -10.1166   16.7177 He  0  0  0  0  0  0  0  0  0  0  0  0
    6.1151   -8.8460   15.7018 He  0  0  0  0  0  0  0  0  0  0  0  0
    6.4809   -7.5090   18.1635 He  0  0  0  0  0  0  0  0  0  0  0  0
  1  2  1  0
  1 13  2  0
  1 15  1  0
  1 20  4  0
  1 21  1  0
  2 24  1  0
  3  6  4  0
  3  8  4  0
  3  9  4  0
  3 10  2  0
  3 16  4  0
  3 18  3  0
  4  7  4  0
  4  9  4  0
  4 28  4  0
  5  7  1  0
  5 10  4  0
  5 13  4  0
  5 26  4  0
  6  7  4  0
  6 13  3  0
  6 18  1  0
  7 20  4  0
  7 28  1  0
  8 10  2  0
  8 11  2  0
  8 13  3  0
  9 24  4  0
  9 29  3  0
 10 14  4  0
 10 15  1  0
 10 19  3  0
 10 23  4  0
 10 29  1  0
 11 14  1  0
 11 17  4  0
 11 19  1  0
 11 21  2  0
 11 24  4  0
 12 19  3  0
 12 29  3  0
 13 17  1  0
 13 27  3  0
 14 21  2  0
 14 29  2  0
 15 26  4  0
 16 23  4  0
 16 27  4  0
 17 19  3  0
 19 22  1  0
 19 23  1  0
 20 25  4  0
 20 26  3  0
 21 24  3  0
 22 25  4  0
 22 28  4  0
 23 26  4  0
 24 26  4  0
 26 29  1  0
 28 29  4  0
M  END
$$$$

 Created by Python create_sdf_string function

 34 36  0  0  0  0  0  0  0  0999 V2000
    9.1634   -1.0310   25.4540 N   0  0  0  0  0  0  0  0  0  0  0  0
    9.6588   -1.9388   24.4446 C   0  0  0  0  0  0  0  0  0  0  0  0
    9.9358   -5.5180   19.3983 C   0  0  0  0  0  0  0  0  0  0  0  0
    2.4378  -10.9311   18.5094 C   0  0  0  0  0  0  0  0  0  0  0  0
   10.9112   -3.2465   17.6193 C   0  0  0  0  0  0  0  0  0  0  0  0
    7.7730   -8.6919   15.2328 C   0  0  0  0  0  0  0  0  0  0  0  0
    2.4796  -11.8008   19.6565 C   0  0  0  0  0  0  0  0  0  0  0  0
    5.6727   -8.1893   19.1635 O   0  0  0  0  0  0  0  0  0  0  0  0
   10.4119   -4.3496   19.7613 C   0  0  0  0  0  0  0  0  0  0  0  0
    3.5375  -10.1151   18.2250 N   0  0  0  0  0  0  0  0  0  0  0  0
   10.5038   -4.1382   16.6925 C   0  0  0  0  0  0  0  0  0  0  0  0
    4.7592   -8.7927   16.7386 C   0  0  0  0  0  0  0  0  0  0  0  0
   10.7000   -3.8976   15.3895 O   0  0  0  0  0  0  0  0  0  0  0  0
   10.8305   -3.3066   18.9730 C   0  0  0  0  0  0  0  0  0  0  0  0
    8.4378   -7.2813   16.8692 C   0  0  0  0  0  0  0  0  0  0  0  0
    6.0194   -8.1140   17.2801 C   0  0  0  0  0  0  0  0  0  0  0  0
    1.2899  -10.0903   16.6588 C   0  0  0  0  0  0  0  0  0  0  0  0
    8.7444   -1.5106   26.6812 C   0  0  0  0  0  0  0  0  0  0  0  0
    9.6164   -5.8434   18.1565 C   0  0  0  0  0  0  0  0  0  0  0  0
   11.2747   -2.2091   19.6027 O   0  0  0  0  0  0  0  0  0  0  0  0
    5.5499   -8.9756   15.6285 C   0  0  0  0  0  0  0  0  0  0  0  0
    6.4934   -9.2431   15.2390 C   0  0  0  0  0  0  0  0  0  0  0  0
    9.1302   -5.9464   15.8901 C   0  0  0  0  0  0  0  0  0  0  0  0
    1.5294  -12.7034   19.8089 C   0  0  0  0  0  0  0  0  0  0  0  0
    9.3403    0.3175   25.1982 C   0  0  0  0  0  0  0  0  0  0  0  0
    6.2432   -7.7837   18.0301 C   0  0  0  0  0  0  0  0  0  0  0  0
    0.3456  -11.9013   17.9667 N   0  0  0  0  0  0  0  0  0  0  0  0
    9.7697   -5.2831   16.9632 C   0  0  0  0  0  0  0  0  0  0  0  0
    3.5919   -9.4170   17.1655 C   0  0  0  0  0  0  0  0  0  0  0  0
    0.4444  -12.6994   19.0155 C   0  0  0  0  0  0  0  0  0  0  0  0
    2.4689   -9.3586   16.3816 C   0  0  0  0  0  0  0  0  0  0  0  0
    8.9069   -7.2750   17.9896 O   0  0  0  0  0  0  0  0  0  0  0  0
    1.3232  -10.9603   17.6945 C   0  0  0  0  0  0  0  0  0  0  0  0
    7.2678   -7.8072   16.8068 C   0  0  0  0  0  0  0  0  0  0  0  0
  1  2  1  0
  1 18  1  0
  1 25  1  0
  3  9  4  0
  3 19  4  0
  4  7  4  0
  4 10  4  0
  4 33  4  0
  5 11  4  0
  5 14  4  0
  6 22  1  0
  7 24  4  0
  8 26  1  0
  9 14  4  0
 10 29  4  0
 11 13  1  0
 11 28  4  0
 12 16  1  0
 12 21  1  0
 12 29  1  0
 14 20  1  0
 15 23  2  0
 15 32  1  0
 15 34  1  0
 16 26  1  0
 16 34  1  0
 17 31  4  0
 17 33  4  0
 19 28  4  0
 19 32  1  0
 21 22  1  0
 23 28  1  0
 24 30  4  0
 27 30  4  0
 27 33  4  0
 29 31  4  0
M  END
$$$$

 Created by Python create_sdf_string function

 34 73  0  0  0  0  0  0  0  0999 V2000
    8.9766   -0.9238   25.4915 N   0  0  0  0  0  0  0  0  0  0  0  0
    9.9389   -1.8713   24.6379 C   0  0  0  0  0  0  0  0  0  0  0  0
    2.1566  -10.9790   18.6010 C   0  0  0  0  0  0  0  0  0  0  0  0
   10.5904   -3.1332   17.3619 B   0  0  0  0  0  0  0  0  0  0  0  0
    7.7385   -8.1610   15.1740 C   0  0  0  0  0  0  0  0  0  0  0  0
    2.5004  -11.7889   19.5330 C   0  0  0  0  0  0  0  0  0  0  0  0
    6.0457   -9.0385   19.5225 O   0  0  0  0  0  0  0  0  0  0  0  0
   10.4581   -4.4937   19.7138 C   0  0  0  0  0  0  0  0  0  0  0  0
    3.2493   -9.9532   18.5517 N   0  0  0  0  0  0  0  0  0  0  0  0
   10.8894   -4.2328   16.6370 C   0  0  0  0  0  0  0  0  0  0  0  0
    5.0982   -9.3314   16.0499 C   0  0  0  0  0  0  0  0  0  0  0  0
   10.6378   -3.9384   15.7652 O   0  0  0  0  0  0  0  0  0  0  0  0
   10.6536   -2.9481   19.0231 C   0  0  0  0  0  0  0  0  0  0  0  0
    8.3523   -7.2310   16.8523 C   0  0  0  0  0  0  0  0  0  0  0  0
    5.8599   -7.9731   17.5889 C   0  0  0  0  0  0  0  0  0  0  0  0
    1.6029  -10.3141   16.6318 C   0  0  0  0  0  0  0  0  0  0  0  0
    8.6472   -1.4379   26.7047 C   0  0  0  0  0  0  0  0  0  0  0  0
    9.5551   -5.5825   17.8589 B   0  0  0  0  0  0  0  0  0  0  0  0
    5.4012   -8.8604   15.7662 C   0  0  0  0  0  0  0  0  0  0  0  0
    9.6116   -5.6213   16.2804 C   0  0  0  0  0  0  0  0  0  0  0  0
    1.5418  -12.4959   19.5253 C   0  0  0  0  0  0  0  0  0  0  0  0
    9.6205    0.7510   25.1890 C   0  0  0  0  0  0  0  0  0  0  0  0
    5.4812   -8.1446   16.7116 P   0  0  0  0  0  0  0  0  0  0  0  0
    0.3044  -11.7635   18.0329 N   0  0  0  0  0  0  0  0  0  0  0  0
    9.6288   -4.8834   16.9996 C   0  0  0  0  0  0  0  0  0  0  0  0
    3.6122   -9.1699   17.3138 C   0  0  0  0  0  0  0  0  0  0  0  0
    0.4509  -12.6623   19.0144 C   0  0  0  0  0  0  0  0  0  0  0  0
    2.3282   -9.3358   16.7323 C   0  0  0  0  0  0  0  0  0  0  0  0
    9.0982   -7.5718   18.0419 O   0  0  0  0  0  0  0  0  0  0  0  0
    1.5908  -11.0701   17.7439 C   0  0  0  0  0  0  0  0  0  0  0  0
    7.3874   -7.5506   16.4853 C   0  0  0  0  0  0  0  0  0  0  0  0
    9.6243   -5.6398   19.8450 He  0  0  0  0  0  0  0  0  0  0  0  0
   11.3688   -2.3344   19.7849 He  0  0  0  0  0  0  0  0  0  0  0  0
    6.4645   -9.1253   14.4319 He  0  0  0  0  0  0  0  0  0  0  0  0
  1  2  3  0
  1  8  1  0
  1  9  4  0
  1 17  1  0
  1 22  1  0
  1 29  3  0
  2 12  4  0
  2 19  1  0
  2 20  4  0
  2 26  2  0
  3  6  4  0
  3  9  4  0
  3 11  3  0
  3 22  2  0
  3 30  4  0
  3 31  2  0
  4  9  1  0
  4 10  4  0
  4 13  4  0
  4 14  4  0
  6 14  1  0
  6 31  4  0
  7 18  1  0
  7 23  1  0
  7 31  1  0
  8 13  4  0
  9 25  2  0
  9 26  1  0
 10 12  1  0
 10 13  4  0
 10 21  3  0
 10 25  4  0
 10 31  1  0
 11 15  1  0
 11 17  2  0
 11 19  1  0
 11 22  2  0
 11 24  4  0
 11 26  1  0
 11 30  1  0
 12 20  4  0
 12 21  4  0
 12 23  2  0
 13 31  4  0
 14 20  3  0
 14 28  2  0
 14 29  1  0
 15 16  1  0
 15 23  1  0
 15 26  1  0
 15 31  1  0
 16 24  3  0
 16 28  4  0
 17 20  2  0
 17 23  4  0
 17 24  1  0
 18 26  3  0
 18 29  1  0
 19 23  1  0
 19 25  1  0
 20 29  2  0
 21 23  1  0
 21 27  4  0
 22 23  1  0
 22 29  3  0
 22 31  3  0
 23 24  1  0
 23 29  4  0
 23 30  4  0
 24 27  4  0
 24 30  4  0
 26 27  4  0
 26 28  4  0
M  END
$$$$

 Created by Python create_sdf_string function

 34 38  0  0  0  0  0  0  0  0999 V2000
    9.1942   -0.8881   25.4519 N   0  0  0  0  0  0  0  0  0  0  0  0
    9.7749   -1.7910   24.5465 C   0  0  0  0  0  0  0  0  0  0  0  0
    9.9702   -5.4973   19.5638 C   0  0  0  0  0  0  0  0  0  0  0  0
    2.4182  -11.0159   18.5475 C   0  0  0  0  0  0  0  0  0  0  0  0
   10.9605   -3.1595   17.7107 C   0  0  0  0  0  0  0  0  0  0  0  0
    7.5729   -8.3102   15.1723 C   0  0  0  0  0  0  0  0  0  0  0  0
    2.4436  -11.8866   19.6663 C   0  0  0  0  0  0  0  0  0  0  0  0
    5.8369   -8.6654   18.9470 O   0  0  0  0  0  0  0  0  0  0  0  0
   10.2952   -4.3213   19.7800 C   0  0  0  0  0  0  0  0  0  0  0  0
    3.5645  -10.2181   18.2769 N   0  0  0  0  0  0  0  0  0  0  0  0
   10.4334   -4.0222   16.7809 C   0  0  0  0  0  0  0  0  0  0  0  0
    4.7740   -9.0506   16.5996 N   0  0  0  0  0  0  0  0  0  0  0  0
   10.6696   -3.7471   15.4274 O   0  0  0  0  0  0  0  0  0  0  0  0
   10.8340   -3.3068   19.0655 C   0  0  0  0  0  0  0  0  0  0  0  0
    8.5530   -6.9873   16.8438 C   0  0  0  0  0  0  0  0  0  0  0  0
    6.3614   -7.7134   17.5559 C   0  0  0  0  0  0  0  0  0  0  0  0
    1.2569  -10.0765   16.6810 C   0  0  0  0  0  0  0  0  0  0  0  0
    8.5828   -1.3338   26.5811 C   0  0  0  0  0  0  0  0  0  0  0  0
    9.6720   -5.8299   18.2922 C   0  0  0  0  0  0  0  0  0  0  0  0
   11.2817   -2.2879   19.7687 O   0  0  0  0  0  0  0  0  0  0  0  0
    5.3600   -8.8880   15.7152 C   0  0  0  0  0  0  0  0  0  0  0  0
    6.5223   -9.1780   14.8967 C   0  0  0  0  0  0  0  0  0  0  0  0
    9.0665   -5.9368   16.1125 C   0  0  0  0  0  0  0  0  0  0  0  0
    1.4046  -12.7252   19.8643 C   0  0  0  0  0  0  0  0  0  0  0  0
    9.4045    0.4665   25.2178 C   0  0  0  0  0  0  0  0  0  0  0  0
    5.6584   -8.4787   17.2471 C   0  0  0  0  0  0  0  0  0  0  0  0
    0.3018  -11.8815   18.0032 N   0  0  0  0  0  0  0  0  0  0  0  0
    9.7537   -5.1628   17.0746 C   0  0  0  0  0  0  0  0  0  0  0  0
    3.5243   -9.5865   17.1224 C   0  0  0  0  0  0  0  0  0  0  0  0
    0.3840  -12.7287   19.0325 C   0  0  0  0  0  0  0  0  0  0  0  0
    2.4442   -9.3971   16.4061 C   0  0  0  0  0  0  0  0  0  0  0  0
    9.0277   -7.1241   18.1461 O   0  0  0  0  0  0  0  0  0  0  0  0
    1.3263  -11.0080   17.7577 C   0  0  0  0  0  0  0  0  0  0  0  0
    7.4662   -7.7118   16.5382 C   0  0  0  0  0  0  0  0  0  0  0  0
  1  2  1  0
  1 18  1  0
  1 25  1  0
  3  9  4  0
  3 19  4  0
  4  7  4  0
  4 10  4  0
  4 33  4  0
  5 11  4  0
  5 14  4  0
  6 22  1  0
  6 34  1  0
  7 24  4  0
  8 26  1  0
  9 14  4  0
 10 29  4  0
 11 13  1  0
 11 28  4  0
 12 21  1  0
 12 26  1  0
 12 29  1  0
 14 20  1  0
 15 23  1  0
 15 32  1  0
 15 34  1  0
 16 26  1  0
 16 34  1  0
 17 31  4  0
 17 33  4  0
 19 28  4  0
 19 32  1  0
 21 22  1  0
 21 26  1  0
 23 28  1  0
 24 30  4  0
 27 30  4  0
 27 33  4  0
 29 31  4  0
M  END
$$$$

 Created by Python create_sdf_string function

 34 69  0  0  0  0  0  0  0  0999 V2000
    9.2754   -0.8158   25.5571 N   0  0  0  0  0  0  0  0  0  0  0  0
    9.7245   -1.8736   24.7877 P   0  0  0  0  0  0  0  0  0  0  0  0
    9.8603   -5.1418   19.6661 C   0  0  0  0  0  0  0  0  0  0  0  0
    2.3115  -10.8326   18.6308 N   0  0  0  0  0  0  0  0  0  0  0  0
   11.1818   -2.5259   17.8468 C   0  0  0  0  0  0  0  0  0  0  0  0
    7.2479   -8.1058   15.4367 C   0  0  0  0  0  0  0  0  0  0  0  0
    2.6461  -11.4759   20.0670 C   0  0  0  0  0  0  0  0  0  0  0  0
    9.7621   -4.4564   19.7730 C   0  0  0  0  0  0  0  0  0  0  0  0
    3.5402   -9.9860   18.0909 N   0  0  0  0  0  0  0  0  0  0  0  0
    4.4994   -9.7691   16.3949 B   0  0  0  0  0  0  0  0  0  0  0  0
   10.5878   -4.0725   15.4021 O   0  0  0  0  0  0  0  0  0  0  0  0
   10.7908   -3.2104   19.1119 C   0  0  0  0  0  0  0  0  0  0  0  0
    8.2160   -6.8613   16.6970 C   0  0  0  0  0  0  0  0  0  0  0  0
    5.9603   -7.6222   17.7738 C   0  0  0  0  0  0  0  0  0  0  0  0
    0.9433   -9.8250   16.7312 C   0  0  0  0  0  0  0  0  0  0  0  0
    8.8055   -1.4673   26.6817 C   0  0  0  0  0  0  0  0  0  0  0  0
    9.6000   -6.0003   18.1965 C   0  0  0  0  0  0  0  0  0  0  0  0
   11.0747   -2.1788   19.6458 O   0  0  0  0  0  0  0  0  0  0  0  0
    5.2148   -9.1457   15.9994 C   0  0  0  0  0  0  0  0  0  0  0  0
    7.0926   -9.8284   15.1158 C   0  0  0  0  0  0  0  0  0  0  0  0
    8.4676   -6.6603   15.4547 C   0  0  0  0  0  0  0  0  0  0  0  0
    1.3652  -12.7363   19.4282 C   0  0  0  0  0  0  0  0  0  0  0  0
    8.7987    0.7001   25.2048 C   0  0  0  0  0  0  0  0  0  0  0  0
   -0.0145  -11.7666   18.0410 N   0  0  0  0  0  0  0  0  0  0  0  0
    9.7533   -5.3308   16.8904 S   0  0  0  0  0  0  0  0  0  0  0  0
    3.7824   -9.8616   17.3147 C   0  0  0  0  0  0  0  0  0  0  0  0
    0.5636  -12.8184   18.7579 C   0  0  0  0  0  0  0  0  0  0  0  0
    2.2772   -9.3181   16.2744 C   0  0  0  0  0  0  0  0  0  0  0  0
    9.0123   -7.1199   18.3094 O   0  0  0  0  0  0  0  0  0  0  0  0
    1.8416  -10.6823   17.9396 C   0  0  0  0  0  0  0  0  0  0  0  0
    7.6197   -7.4766   16.6412 C   0  0  0  0  0  0  0  0  0  0  0  0
    5.2425   -9.4215   18.9469 He  0  0  0  0  0  0  0  0  0  0  0  0
   10.3137   -3.9017   16.9696 He  0  0  0  0  0  0  0  0  0  0  0  0
    4.7746   -8.5894   16.8195 He  0  0  0  0  0  0  0  0  0  0  0  0
  1  2  1  0
  1  9  2  0
  1 13  3  0
  1 16  1  0
  1 23  4  0
  1 31  3  0
  2  7  4  0
  3  7  2  0
  3  8  4  0
  3 17  4  0
  3 21  4  0
  4  6  1  0
  4  7  4  0
  4  9  4  0
  4 30  4  0
  4 31  2  0
  5 12  4  0
  5 23  3  0
  5 29  4  0
  6 11  2  0
  6 24  2  0
  6 25  4  0
  6 29  2  0
  6 30  4  0
  6 31  1  0
  7 22  4  0
  7 28  2  0
  8  9  1  0
  8 12  4  0
  9 26  2  0
 10 12  2  0
 10 13  1  0
 10 14  1  0
 10 19  2  0
 10 20  1  0
 10 22  4  0
 10 25  4  0
 10 27  2  0
 10 29  2  0
 12 18  1  0
 12 22  4  0
 13 21  1  0
 13 29  2  0
 13 31  2  0
 15 24  3  0
 15 28  4  0
 15 30  4  0
 15 31  3  0
 16 21  1  0
 16 31  4  0
 17 22  1  0
 17 25  4  0
 17 29  1  0
 18 20  3  0
 18 30  2  0
 19 20  1  0
 19 29  1  0
 20 31  1  0
 21 22  2  0
 21 25  1  0
 21 31  3  0
 22 24  1  0
 22 25  1  0
 22 27  4  0
 22 31  2  0
 24 27  4  0
 24 30  4  0
 26 28  4  0
 26 31  2  0
M  END
$$$$

 Created by Python create_sdf_string function

 34 38  0  0  0  0  0  0  0  0999 V2000
    9.1988   -0.9141   25.5337 N   0  0  0  0  0  0  0  0  0  0  0  0
    9.7035   -1.7422   24.5556 C   0  0  0  0  0  0  0  0  0  0  0  0
    9.8250   -5.3673   19.5401 C   0  0  0  0  0  0  0  0  0  0  0  0
    2.3860  -10.9905   18.5854 C   0  0  0  0  0  0  0  0  0  0  0  0
   10.8173   -3.1879   17.6690 C   0  0  0  0  0  0  0  0  0  0  0  0
    7.3653   -8.3128   15.2846 C   0  0  0  0  0  0  0  0  0  0  0  0
    2.4226  -11.9009   19.6858 C   0  0  0  0  0  0  0  0  0  0  0  0
    5.5498   -9.1529   18.6731 O   0  0  0  0  0  0  0  0  0  0  0  0
   10.2723   -4.2336   19.8537 C   0  0  0  0  0  0  0  0  0  0  0  0
    3.4125  -10.2542   18.2380 N   0  0  0  0  0  0  0  0  0  0  0  0
   10.4112   -4.1255   16.7688 C   0  0  0  0  0  0  0  0  0  0  0  0
    4.6582   -9.3941   16.4688 O   0  0  0  0  0  0  0  0  0  0  0  0
   10.5939   -3.8994   15.4591 O   0  0  0  0  0  0  0  0  0  0  0  0
   10.7434   -3.2195   19.0679 C   0  0  0  0  0  0  0  0  0  0  0  0
    8.3971   -6.9868   16.8669 C   0  0  0  0  0  0  0  0  0  0  0  0
    6.2753   -7.7864   17.5642 C   0  0  0  0  0  0  0  0  0  0  0  0
    1.1899   -9.9913   16.7946 C   0  0  0  0  0  0  0  0  0  0  0  0
    8.7243   -1.4014   26.7629 C   0  0  0  0  0  0  0  0  0  0  0  0
    9.5309   -5.7947   18.2687 C   0  0  0  0  0  0  0  0  0  0  0  0
   11.2179   -2.1646   19.6911 O   0  0  0  0  0  0  0  0  0  0  0  0
    5.4250   -9.2541   15.9392 C   0  0  0  0  0  0  0  0  0  0  0  0
    6.6288   -9.4625   15.1934 C   0  0  0  0  0  0  0  0  0  0  0  0
    8.9733   -5.9956   16.0336 C   0  0  0  0  0  0  0  0  0  0  0  0
    1.4534  -12.7112   19.8408 C   0  0  0  0  0  0  0  0  0  0  0  0
    8.8367    0.4381   25.1487 C   0  0  0  0  0  0  0  0  0  0  0  0
    5.4765   -8.7680   17.2924 C   0  0  0  0  0  0  0  0  0  0  0  0
    0.2409  -11.8172   18.0827 N   0  0  0  0  0  0  0  0  0  0  0  0
    9.7113   -5.2278   17.0503 C   0  0  0  0  0  0  0  0  0  0  0  0
    3.4243   -9.7070   17.0488 C   0  0  0  0  0  0  0  0  0  0  0  0
    0.3865  -12.7268   19.0404 C   0  0  0  0  0  0  0  0  0  0  0  0
    2.3275   -9.4279   16.3817 C   0  0  0  0  0  0  0  0  0  0  0  0
    8.9085   -7.1252   18.1402 O   0  0  0  0  0  0  0  0  0  0  0  0
    1.2521  -10.9441   17.8209 C   0  0  0  0  0  0  0  0  0  0  0  0
    7.3462   -7.6513   16.5809 C   0  0  0  0  0  0  0  0  0  0  0  0
  1  2  1  0
  1 18  1  0
  1 25  1  0
  3  9  4  0
  3 19  4  0
  4  7  4  0
  4 10  4  0
  4 33  4  0
  5 11  4  0
  5 14  4  0
  6 22  1  0
  6 34  1  0
  7 24  4  0
  8 26  1  0
  9 14  4  0
 10 29  4  0
 11 13  1  0
 11 28  4  0
 12 21  2  0
 12 26  1  0
 12 29  1  0
 14 20  1  0
 15 23  1  0
 15 32  1  0
 15 34  1  0
 16 26  1  0
 16 34  1  0
 17 31  4  0
 17 33  4  0
 19 28  4  0
 19 32  1  0
 21 22  1  0
 21 26  1  0
 23 28  1  0
 24 30  4  0
 27 30  4  0
 27 33  4  0
 29 31  4  0
M  END
$$$$

 Created by Python create_sdf_string function

 34 68  0  0  0  0  0  0  0  0999 V2000
    9.1875   -0.8059   25.7093 N   0  0  0  0  0  0  0  0  0  0  0  0
    9.7440   -1.6740   24.7853 C   0  0  0  0  0  0  0  0  0  0  0  0
    9.8033   -5.3786   19.3659 C   0  0  0  0  0  0  0  0  0  0  0  0
    2.5672  -10.8730   18.5563 C   0  0  0  0  0  0  0  0  0  0  0  0
   10.7301   -3.0675   17.2748 C   0  0  0  0  0  0  0  0  0  0  0  0
    7.5805   -8.5395   15.3906 C   0  0  0  0  0  0  0  0  0  0  0  0
    2.3024  -12.0668   19.9479 C   0  0  0  0  0  0  0  0  0  0  0  0
    6.0988   -9.9322   18.5205 F   0  0  0  0  0  0  0  0  0  0  0  0
   10.1634   -4.1295   20.1149 C   0  0  0  0  0  0  0  0  0  0  0  0
    3.2811  -10.4129   18.4445 N   0  0  0  0  0  0  0  0  0  0  0  0
   10.1561   -4.5066   16.8890 C   0  0  0  0  0  0  0  0  0  0  0  0
    5.2239   -9.0771   16.6994 C   0  0  0  0  0  0  0  0  0  0  0  0
   10.7165   -3.7980   15.5061 O   0  0  0  0  0  0  0  0  0  0  0  0
   10.7380   -3.2085   19.3002 C   0  0  0  0  0  0  0  0  0  0  0  0
    6.1544   -7.5338   17.3259 C   0  0  0  0  0  0  0  0  0  0  0  0
    1.0307   -9.5098   16.8102 F   0  0  0  0  0  0  0  0  0  0  0  0
    8.9489   -1.1562   26.7974 O   0  0  0  0  0  0  0  0  0  0  0  0
   11.1730   -2.1560   19.8137 O   0  0  0  0  0  0  0  0  0  0  0  0
    5.4020   -9.6659   15.7869 C   0  0  0  0  0  0  0  0  0  0  0  0
    6.9566   -9.4473   15.6024 C   0  0  0  0  0  0  0  0  0  0  0  0
    9.3474   -5.8825   16.3174 C   0  0  0  0  0  0  0  0  0  0  0  0
    1.1268  -12.5866   19.7544 C   0  0  0  0  0  0  0  0  0  0  0  0
    8.9563    0.1698   25.4540 C   0  0  0  0  0  0  0  0  0  0  0  0
    5.4600   -8.9546   17.3700 C   0  0  0  0  0  0  0  0  0  0  0  0
    0.2495  -11.7223   17.9824 N   0  0  0  0  0  0  0  0  0  0  0  0
    3.5028   -9.8096   16.7209 C   0  0  0  0  0  0  0  0  0  0  0  0
    0.2833  -12.5424   19.1607 C   0  0  0  0  0  0  0  0  0  0  0  0
    2.3063   -9.8117   16.5908 C   0  0  0  0  0  0  0  0  0  0  0  0
    1.4506  -10.8822   17.7872 C   0  0  0  0  0  0  0  0  0  0  0  0
    8.3374   -7.1917   16.5657 He  0  0  0  0  0  0  0  0  0  0  0  0
    9.4696   -5.8467   18.6879 He  0  0  0  0  0  0  0  0  0  0  0  0
    9.4688   -5.6369   16.9291 He  0  0  0  0  0  0  0  0  0  0  0  0
    9.2271   -7.2952   18.0876 He  0  0  0  0  0  0  0  0  0  0  0  0
    7.7689   -7.4668   16.6048 He  0  0  0  0  0  0  0  0  0  0  0  0
  1  2  1  0
  1 12  4  0
  1 16  2  0
  1 17  1  0
  1 23  1  0
  2 12  4  0
  2 24  3  0
  3  8  2  0
  3 27  1  0
  4  7  4  0
  4  8  2  0
  4 10  4  0
  4 18  2  0
  5 11  4  0
  5 14  4  0
  5 21  3  0
  5 23  4  0
  5 24  1  0
  6  8  4  0
  6 12  2  0
  6 19  4  0
  6 20  1  0
  6 28  3  0
  7 17  1  0
  7 20  1  0
  7 22  4  0
  7 24  3  0
  8  9  1  0
  8 22  3  0
  8 23  3  0
  8 26  1  0
  9 14  4  0
  9 20  4  0
  9 21  4  0
  9 23  4  0
 10 12  2  0
 10 26  4  0
 11 13  1  0
 11 21  3  0
 12 19  2  0
 12 21  4  0
 12 24  1  0
 12 26  1  0
 12 28  1  0
 13 18  2  0
 13 27  2  0
 13 29  2  0
 14 18  1  0
 15 24  3  0
 16 24  1  0
 16 26  4  0
 16 28  4  0
 16 29  4  0
 17 26  4  0
 19 20  1  0
 19 24  1  0
 20 22  1  0
 21 25  2  0
 22 23  4  0
 22 27  4  0
 22 29  2  0
 23 24  4  0
 24 26  2  0
 24 27  4  0
 25 27  4  0
 25 29  4  0
 26 28  4  0
 28 29  1  0
M  END
$$$$

 Created by Python create_sdf_string function

 34 37  0  0  0  0  0  0  0  0999 V2000
    9.1665   -0.8451   25.6977 N   0  0  0  0  0  0  0  0  0  0  0  0
    9.6998   -1.7308   24.6503 C   0  0  0  0  0  0  0  0  0  0  0  0
    9.8896   -5.4268   19.5606 C   0  0  0  0  0  0  0  0  0  0  0  0
    2.3509  -11.0825   18.6058 C   0  0  0  0  0  0  0  0  0  0  0  0
   10.7974   -3.1988   17.7345 C   0  0  0  0  0  0  0  0  0  0  0  0
    7.5185   -8.4982   15.3002 C   0  0  0  0  0  0  0  0  0  0  0  0
    2.2656  -11.9670   19.7229 C   0  0  0  0  0  0  0  0  0  0  0  0
    6.0442   -9.4179   18.5404 O   0  0  0  0  0  0  0  0  0  0  0  0
   10.2956   -4.2766   19.8930 C   0  0  0  0  0  0  0  0  0  0  0  0
    3.5419  -10.4390   18.2884 N   0  0  0  0  0  0  0  0  0  0  0  0
   10.3476   -4.1010   16.8195 C   0  0  0  0  0  0  0  0  0  0  0  0
    4.7895   -9.1904   16.7427 C   0  0  0  0  0  0  0  0  0  0  0  0
   10.5462   -3.8108   15.4979 O   0  0  0  0  0  0  0  0  0  0  0  0
   10.7608   -3.2492   19.1074 C   0  0  0  0  0  0  0  0  0  0  0  0
    8.5738   -7.1730   16.8199 C   0  0  0  0  0  0  0  0  0  0  0  0
    6.3060   -7.6014   17.3255 C   0  0  0  0  0  0  0  0  0  0  0  0
    1.2663   -9.9934   16.7776 C   0  0  0  0  0  0  0  0  0  0  0  0
    8.9012   -1.2725   26.8880 C   0  0  0  0  0  0  0  0  0  0  0  0
    9.6385   -5.8655   18.3276 C   0  0  0  0  0  0  0  0  0  0  0  0
   11.2369   -2.1797   19.7280 O   0  0  0  0  0  0  0  0  0  0  0  0
    5.3768   -9.5264   15.8287 C   0  0  0  0  0  0  0  0  0  0  0  0
    6.6922   -9.6234   15.3362 C   0  0  0  0  0  0  0  0  0  0  0  0
    9.0368   -5.9904   16.0828 C   0  0  0  0  0  0  0  0  0  0  0  0
    1.1413  -12.6809   19.9222 C   0  0  0  0  0  0  0  0  0  0  0  0
    8.8261    0.4707   25.2578 C   0  0  0  0  0  0  0  0  0  0  0  0
    5.6940   -8.7792   17.6200 C   0  0  0  0  0  0  0  0  0  0  0  0
    0.1172  -11.6391   18.1103 N   0  0  0  0  0  0  0  0  0  0  0  0
    9.7181   -5.2655   17.1062 C   0  0  0  0  0  0  0  0  0  0  0  0
    3.5122   -9.7208   17.2193 C   0  0  0  0  0  0  0  0  0  0  0  0
    0.1005  -12.5544   19.0959 C   0  0  0  0  0  0  0  0  0  0  0  0
    2.4121   -9.4208   16.4835 C   0  0  0  0  0  0  0  0  0  0  0  0
    9.0646   -7.2601   18.1614 C   0  0  0  0  0  0  0  0  0  0  0  0
    1.2441  -10.9070   17.8273 C   0  0  0  0  0  0  0  0  0  0  0  0
    7.4745   -7.6351   16.4815 C   0  0  0  0  0  0  0  0  0  0  0  0
  1  2  1  0
  1 18  1  0
  1 25  1  0
  3  9  4  0
  3 19  4  0
  4  7  4  0
  4 10  4  0
  4 33  4  0
  5 11  4  0
  5 14  4  0
  6 22  1  0
  6 34  1  0
  7 24  4  0
  8 26  1  0
  9 14  4  0
 10 29  4  0
 11 13  1  0
 11 28  4  0
 12 21  1  0
 12 26  1  0
 12 29  1  0
 14 20  1  0
 15 23  1  0
 15 32  1  0
 15 34  1  0
 16 26  1  0
 16 34  1  0
 17 31  4  0
 17 33  4  0
 19 28  4  0
 19 32  1  0
 21 22  1  0
 23 28  1  0
 24 30  4  0
 27 30  4  0
 27 33  4  0
 29 31  4  0
M  END
$$$$

 Created by Python create_sdf_string function

 34 65  0  0  0  0  0  0  0  0999 V2000
    9.1606   -0.8004   25.5734 N   0  0  0  0  0  0  0  0  0  0  0  0
    9.7525   -1.6201   24.8069 C   0  0  0  0  0  0  0  0  0  0  0  0
   10.2285   -5.4033   19.3926 C   0  0  0  0  0  0  0  0  0  0  0  0
   10.9986   -3.4632   17.7590 C   0  0  0  0  0  0  0  0  0  0  0  0
    7.4742   -8.5236   15.1941 C   0  0  0  0  0  0  0  0  0  0  0  0
    2.7315  -11.9669   19.9277 C   0  0  0  0  0  0  0  0  0  0  0  0
    5.8666  -10.4456   19.0218 O   0  0  0  0  0  0  0  0  0  0  0  0
   10.5618   -4.4028   20.0129 C   0  0  0  0  0  0  0  0  0  0  0  0
    3.6384  -10.9776   17.9806 N   0  0  0  0  0  0  0  0  0  0  0  0
   10.0632   -4.0464   16.7021 O   0  0  0  0  0  0  0  0  0  0  0  0
    4.8383   -8.3689   16.6638 C   0  0  0  0  0  0  0  0  0  0  0  0
   10.7144   -3.7331   15.3030 O   0  0  0  0  0  0  0  0  0  0  0  0
   10.6162   -3.0631   19.0835 C   0  0  0  0  0  0  0  0  0  0  0  0
    8.2998   -7.2219   16.5644 C   0  0  0  0  0  0  0  0  0  0  0  0
    6.3351   -7.5104   17.4564 C   0  0  0  0  0  0  0  0  0  0  0  0
    1.2551  -10.0655   16.4734 C   0  0  0  0  0  0  0  0  0  0  0  0
    9.7922   -6.0406   18.2898 C   0  0  0  0  0  0  0  0  0  0  0  0
   11.2774   -2.2701   19.8848 O   0  0  0  0  0  0  0  0  0  0  0  0
    5.5339   -9.3478   15.6644 C   0  0  0  0  0  0  0  0  0  0  0  0
    7.3595   -9.7221   15.1864 C   0  0  0  0  0  0  0  0  0  0  0  0
    8.6682   -6.9229   15.8057 C   0  0  0  0  0  0  0  0  0  0  0  0
    1.4826  -12.5161   20.1954 C   0  0  0  0  0  0  0  0  0  0  0  0
    8.7832    0.4087   24.9788 C   0  0  0  0  0  0  0  0  0  0  0  0
    0.2928  -11.3459   17.8689 N   0  0  0  0  0  0  0  0  0  0  0  0
    2.3563   -9.4333   16.4607 C   0  0  0  0  0  0  0  0  0  0  0  0
    8.8988   -7.6037   18.3182 C   0  0  0  0  0  0  0  0  0  0  0  0
    1.2948  -11.3123   17.9976 C   0  0  0  0  0  0  0  0  0  0  0  0
    8.0716   -7.5632   16.3775 C   0  0  0  0  0  0  0  0  0  0  0  0
    2.3980  -11.1765   18.5427 He  0  0  0  0  0  0  0  0  0  0  0  0
    8.9567   -1.1881   26.7157 He  0  0  0  0  0  0  0  0  0  0  0  0
    6.2204   -9.1500   17.1366 He  0  0  0  0  0  0  0  0  0  0  0  0
    9.9069   -5.4488   17.4745 He  0  0  0  0  0  0  0  0  0  0  0  0
    3.4976   -9.3276   16.5364 He  0  0  0  0  0  0  0  0  0  0  0  0
    0.0240  -12.3763   18.9790 He  0  0  0  0  0  0  0  0  0  0  0  0
  1  2  1  0
  1  5  1  0
  1  8  3  0
  1 20  3  0
  1 23  1  0
  1 27  4  0
  2 14  4  0
  2 21  2  0
  2 28  3  0
  3 14  1  0
  3 17  4  0
  3 20  3  0
  4 10  4  0
  4 13  4  0
  4 18  2  0
  4 19  4  0
  4 26  2  0
  5  8  4  0
  5 10  3  0
  5 11  4  0
  5 20  2  0
  5 28  1  0
  6 14  1  0
  7 12  4  0
  7 13  4  0
  8 13  4  0
  8 14  4  0
  8 23  3  0
  9 28  2  0
 10 12  1  0
 10 14  1  0
 10 21  3  0
 11 13  2  0
 11 16  4  0
 11 19  1  0
 11 20  1  0
 11 21  2  0
 11 22  3  0
 11 26  4  0
 12 13  2  0
 12 28  3  0
 13 18  1  0
 13 20  2  0
 13 26  1  0
 14 25  1  0
 14 27  1  0
 16 18  3  0
 16 19  4  0
 16 20  3  0
 16 21  4  0
 16 25  4  0
 16 27  4  0
 16 28  2  0
 17 26  1  0
 19 22  1  0
 20 23  3  0
 21 23  3  0
 22 23  2  0
 22 26  3  0
 23 25  1  0
 23 27  3  0
 23 28  2  0
 24 27  4  0
 24 28  4  0
 25 28  3  0
M  END
$$$$

 Created by Python create_sdf_string function

 34 36  0  0  0  0  0  0  0  0999 V2000
    9.1370   -0.7987   25.4873 N   0  0  0  0  0  0  0  0  0  0  0  0
    9.7710   -1.7193   24.5732 C   0  0  0  0  0  0  0  0  0  0  0  0
   10.0814   -5.6015   19.5106 C   0  0  0  0  0  0  0  0  0  0  0  0
    2.4728  -11.1067   18.5017 C   0  0  0  0  0  0  0  0  0  0  0  0
   10.7828   -3.2412   17.7013 C   0  0  0  0  0  0  0  0  0  0  0  0
    7.6544   -8.4600   15.4200 C   0  0  0  0  0  0  0  0  0  0  0  0
    2.5098  -11.9405   19.6363 C   0  0  0  0  0  0  0  0  0  0  0  0
    5.5686  -10.0050   18.7421 O   0  0  0  0  0  0  0  0  0  0  0  0
   10.4934   -4.4653   19.7964 C   0  0  0  0  0  0  0  0  0  0  0  0
    3.6128  -10.4035   18.0892 N   0  0  0  0  0  0  0  0  0  0  0  0
   10.3678   -4.1971   16.8012 C   0  0  0  0  0  0  0  0  0  0  0  0
    4.7304   -8.8982   16.4986 N   0  0  0  0  0  0  0  0  0  0  0  0
   10.4661   -3.8798   15.4966 O   0  0  0  0  0  0  0  0  0  0  0  0
   10.8402   -3.3365   19.0654 C   0  0  0  0  0  0  0  0  0  0  0  0
    8.3859   -7.0129   16.4514 C   0  0  0  0  0  0  0  0  0  0  0  0
    6.5252   -7.8266   17.5766 C   0  0  0  0  0  0  0  0  0  0  0  0
    1.2753  -10.0791   16.7333 C   0  0  0  0  0  0  0  0  0  0  0  0
    8.8213   -1.1850   26.6949 C   0  0  0  0  0  0  0  0  0  0  0  0
    9.6814   -5.9834   18.2818 C   0  0  0  0  0  0  0  0  0  0  0  0
   11.2737   -2.2949   19.7396 O   0  0  0  0  0  0  0  0  0  0  0  0
    5.4592   -9.2697   15.7187 C   0  0  0  0  0  0  0  0  0  0  0  0
    6.8091   -9.3396   15.2193 C   0  0  0  0  0  0  0  0  0  0  0  0
    8.9987   -6.0429   16.0639 C   0  0  0  0  0  0  0  0  0  0  0  0
    1.3761  -12.5345   20.0240 C   0  0  0  0  0  0  0  0  0  0  0  0
    8.7300    0.4868   24.9833 C   0  0  0  0  0  0  0  0  0  0  0  0
    5.9885   -9.0421   17.4861 C   0  0  0  0  0  0  0  0  0  0  0  0
    0.1925  -11.6689   18.2144 N   0  0  0  0  0  0  0  0  0  0  0  0
    9.7519   -5.3204   17.1446 C   0  0  0  0  0  0  0  0  0  0  0  0
    3.5372   -9.6299   17.0805 C   0  0  0  0  0  0  0  0  0  0  0  0
    0.2636  -12.4035   19.3287 C   0  0  0  0  0  0  0  0  0  0  0  0
    2.4001   -9.4467   16.3349 C   0  0  0  0  0  0  0  0  0  0  0  0
    9.1780   -7.3652   18.3199 C   0  0  0  0  0  0  0  0  0  0  0  0
    1.3085  -10.9580   17.8087 C   0  0  0  0  0  0  0  0  0  0  0  0
    7.7814   -7.7827   16.6160 C   0  0  0  0  0  0  0  0  0  0  0  0
  1  2  1  0
  1 18  1  0
  1 25  1  0
  3  9  4  0
  3 19  4  0
  4  7  4  0
  4 10  4  0
  4 33  4  0
  5 11  4  0
  5 14  4  0
  6 22  1  0
  6 34  1  0
  7 24  4  0
  8 26  1  0
  9 14  4  0
 10 29  4  0
 11 13  1  0
 11 28  4  0
 12 21  1  0
 12 26  1  0
 12 29  1  0
 14 20  1  0
 15 23  1  0
 15 34  1  0
 16 26  1  0
 16 34  1  0
 17 31  4  0
 17 33  4  0
 19 28  4  0
 19 32  1  0
 21 22  1  0
 23 28  1  0
 24 30  4  0
 27 30  4  0
 27 33  4  0
 29 31  4  0
M  END
$$$$

 Created by Python create_sdf_string function

 34 70  0  0  0  0  0  0  0  0999 V2000
    9.3200   -0.8235   25.6017 N   0  0  0  0  0  0  0  0  0  0  0  0
    9.4921   -1.9083   24.3898 C   0  0  0  0  0  0  0  0  0  0  0  0
   10.0431   -5.6446   19.7237 C   0  0  0  0  0  0  0  0  0  0  0  0
    2.5068  -11.3224   18.5850 C   0  0  0  0  0  0  0  0  0  0  0  0
   11.0049   -3.4082   17.7839 C   0  0  0  0  0  0  0  0  0  0  0  0
    7.7162   -8.4570   15.2594 C   0  0  0  0  0  0  0  0  0  0  0  0
    2.4991  -11.7378   19.5850 C   0  0  0  0  0  0  0  0  0  0  0  0
    5.5863  -10.2914   18.1431 O   0  0  0  0  0  0  0  0  0  0  0  0
   10.6139   -4.3855   16.9613 C   0  0  0  0  0  0  0  0  0  0  0  0
   10.3613   -4.3310   15.8340 O   0  0  0  0  0  0  0  0  0  0  0  0
   10.7697   -3.3076   19.0413 C   0  0  0  0  0  0  0  0  0  0  0  0
    8.5925   -7.1078   16.5155 C   0  0  0  0  0  0  0  0  0  0  0  0
    6.5666   -7.6874   17.7926 C   0  0  0  0  0  0  0  0  0  0  0  0
    1.4139  -10.2100   16.6553 C   0  0  0  0  0  0  0  0  0  0  0  0
    8.6802   -0.7895   26.6028 C   0  0  0  0  0  0  0  0  0  0  0  0
   10.2636   -5.9242   18.1428 C   0  0  0  0  0  0  0  0  0  0  0  0
   11.3348   -2.2599   19.5564 O   0  0  0  0  0  0  0  0  0  0  0  0
    5.6555   -9.3512   15.8532 C   0  0  0  0  0  0  0  0  0  0  0  0
    6.7982   -8.8585   14.9969 C   0  0  0  0  0  0  0  0  0  0  0  0
    8.9321   -6.1251   16.5586 C   0  0  0  0  0  0  0  0  0  0  0  0
    1.0145  -12.5534   19.9418 C   0  0  0  0  0  0  0  0  0  0  0  0
    8.6446    0.5001   24.9181 C   0  0  0  0  0  0  0  0  0  0  0  0
    5.9333  -10.0637   17.7736 Cl  0  0  0  0  0  0  0  0  0  0  0  0
    0.1156  -11.6670   18.2358 N   0  0  0  0  0  0  0  0  0  0  0  0
    9.8770   -5.2616   17.0383 C   0  0  0  0  0  0  0  0  0  0  0  0
    3.5308   -9.7718   17.0490 S   0  0  0  0  0  0  0  0  0  0  0  0
    0.2299  -12.3370   19.0092 Cl  0  0  0  0  0  0  0  0  0  0  0  0
    2.2655   -9.3790   16.5587 C   0  0  0  0  0  0  0  0  0  0  0  0
    9.2691   -7.7944   18.2362 C   0  0  0  0  0  0  0  0  0  0  0  0
    1.2743  -11.1382   18.1574 C   0  0  0  0  0  0  0  0  0  0  0  0
    7.3929   -7.7181   16.3531 C   0  0  0  0  0  0  0  0  0  0  0  0
   10.3387   -4.5952   19.6595 He  0  0  0  0  0  0  0  0  0  0  0  0
    3.7511  -10.6702   18.2719 He  0  0  0  0  0  0  0  0  0  0  0  0
    4.5551   -9.1070   16.0270 He  0  0  0  0  0  0  0  0  0  0  0  0
  1  2  1  0
  1 15  1  0
  1 22  1  0
  1 24  1  0
  2  4  1  0
  2 14  4  0
  2 19  2  0
  2 29  4  0
  3 16  4  0
  3 19  1  0
  3 23  4  0
  3 29  3  0
  4  7  4  0
  4  8  1  0
  4 11  3  0
  4 14  1  0
  4 18  2  0
  4 26  1  0
  4 30  4  0
  5  9  4  0
  5 11  4  0
  5 19  2  0
  5 20  4  0
  6 11  1  0
  6 31  4  0
  7  8  2  0
  7 17  2  0
  7 21  4  0
  8 23  1  0
  9 19  4  0
  9 25  4  0
  9 30  3  0
 10 12  1  0
 10 20  3  0
 11 17  1  0
 11 31  4  0
 12 16  4  0
 12 19  1  0
 12 20  2  0
 12 23  3  0
 13 17  3  0
 13 23  1  0
 13 31  1  0
 14 16  4  0
 14 21  4  0
 14 24  2  0
 14 30  4  0
 15 21  1  0
 15 23  3  0
 16 20  4  0
 16 22  1  0
 16 23  1  0
 16 25  4  0
 16 29  1  0
 17 23  3  0
 18 31  2  0
 19 21  2  0
 19 31  4  0
 20 22  4  0
 20 25  3  0
 20 29  1  0
 21 25  2  0
 21 27  4  0
 23 27  1  0
 24 27  4  0
 24 30  4  0
 24 31  1  0
 27 28  4  0
 27 30  3  0
 30 31  4  0
M  END
$$$$

 Created by Python create_sdf_string function

 34 36  0  0  0  0  0  0  0  0999 V2000
    9.1591   -0.7361   25.4306 N   0  0  0  0  0  0  0  0  0  0  0  0
    9.5887   -1.7767   24.5365 C   0  0  0  0  0  0  0  0  0  0  0  0
   10.2026   -5.6714   19.6620 C   0  0  0  0  0  0  0  0  0  0  0  0
    2.3948  -11.1420   18.5682 C   0  0  0  0  0  0  0  0  0  0  0  0
   10.8694   -3.3813   17.7266 C   0  0  0  0  0  0  0  0  0  0  0  0
    7.7346   -8.5526   15.1085 C   0  0  0  0  0  0  0  0  0  0  0  0
    2.3391  -12.0047   19.7009 C   0  0  0  0  0  0  0  0  0  0  0  0
    5.9935  -10.0902   18.3842 O   0  0  0  0  0  0  0  0  0  0  0  0
   10.5849   -4.3761   19.9427 C   0  0  0  0  0  0  0  0  0  0  0  0
    3.5738  -10.5392   18.1863 N   0  0  0  0  0  0  0  0  0  0  0  0
   10.3950   -4.3024   16.8490 C   0  0  0  0  0  0  0  0  0  0  0  0
    4.8715   -9.2771   16.6406 C   0  0  0  0  0  0  0  0  0  0  0  0
   10.4980   -4.1394   15.6276 O   0  0  0  0  0  0  0  0  0  0  0  0
   10.9030   -3.3594   19.0914 C   0  0  0  0  0  0  0  0  0  0  0  0
    8.3375   -6.9844   16.5091 C   0  0  0  0  0  0  0  0  0  0  0  0
    6.5808   -8.0091   17.6492 C   0  0  0  0  0  0  0  0  0  0  0  0
    1.2372  -10.0264   16.8510 C   0  0  0  0  0  0  0  0  0  0  0  0
    8.7119   -1.0386   26.7058 C   0  0  0  0  0  0  0  0  0  0  0  0
    9.8703   -6.0872   18.4925 C   0  0  0  0  0  0  0  0  0  0  0  0
   11.3063   -2.2433   19.6727 O   0  0  0  0  0  0  0  0  0  0  0  0
    5.4714   -9.3563   15.5284 C   0  0  0  0  0  0  0  0  0  0  0  0
    6.6076   -8.9972   15.1480 C   0  0  0  0  0  0  0  0  0  0  0  0
    9.0523   -6.2140   16.2470 C   0  0  0  0  0  0  0  0  0  0  0  0
    1.1989  -12.5949   20.0309 C   0  0  0  0  0  0  0  0  0  0  0  0
    8.7609    0.5301   24.8453 C   0  0  0  0  0  0  0  0  0  0  0  0
    5.9147   -9.2414   17.6522 C   0  0  0  0  0  0  0  0  0  0  0  0
    0.1357  -11.6486   18.2172 N   0  0  0  0  0  0  0  0  0  0  0  0
    9.8068   -5.4373   17.2524 C   0  0  0  0  0  0  0  0  0  0  0  0
    3.6021   -9.7691   17.1152 C   0  0  0  0  0  0  0  0  0  0  0  0
    0.1277  -12.4395   19.2848 C   0  0  0  0  0  0  0  0  0  0  0  0
    2.4463   -9.4719   16.4104 C   0  0  0  0  0  0  0  0  0  0  0  0
    9.5357   -7.4886   18.5053 C   0  0  0  0  0  0  0  0  0  0  0  0
    1.2348  -10.9565   17.8664 C   0  0  0  0  0  0  0  0  0  0  0  0
    7.4262   -7.8010   16.4824 C   0  0  0  0  0  0  0  0  0  0  0  0
  1  2  1  0
  1 18  1  0
  1 25  1  0
  3  9  4  0
  3 19  4  0
  4  7  4  0
  4 10  4  0
  4 33  4  0
  5 11  4  0
  5 14  4  0
  6 22  1  0
  6 34  1  0
  7 24  4  0
  8 26  1  0
  9 14  4  0
 10 29  4  0
 11 13  1  0
 11 28  4  0
 12 21  1  0
 12 26  1  0
 12 29  1  0
 14 20  1  0
 15 23  2  0
 15 34  1  0
 16 26  1  0
 16 34  1  0
 17 31  4  0
 17 33  4  0
 19 28  4  0
 19 32  1  0
 21 22  1  0
 23 28  1  0
 24 30  4  0
 27 30  4  0
 27 33  4  0
 29 31  4  0
M  END
$$$$

 Created by Python create_sdf_string function

 34 46  0  0  0  0  0  0  0  0999 V2000
    9.3290   -1.0243   25.6516 N   0  0  0  0  0  0  0  0  0  0  0  0
    9.9633   -1.5411   24.3099 C   0  0  0  0  0  0  0  0  0  0  0  0
   10.0237   -5.6452   19.5920 C   0  0  0  0  0  0  0  0  0  0  0  0
    2.5245  -11.4581   18.4492 C   0  0  0  0  0  0  0  0  0  0  0  0
   11.1518   -3.6802   17.9159 Cl  0  0  0  0  0  0  0  0  0  0  0  0
    7.5211   -8.4227   15.2928 C   0  0  0  0  0  0  0  0  0  0  0  0
    2.6528  -12.0096   19.4608 C   0  0  0  0  0  0  0  0  0  0  0  0
    5.7271  -10.4855   19.2573 C   0  0  0  0  0  0  0  0  0  0  0  0
   10.4171   -4.2788   19.9516 C   0  0  0  0  0  0  0  0  0  0  0  0
    3.1155  -10.5991   18.3783 N   0  0  0  0  0  0  0  0  0  0  0  0
   10.6563   -3.9482   16.9329 C   0  0  0  0  0  0  0  0  0  0  0  0
    5.4297   -9.6670   16.5009 C   0  0  0  0  0  0  0  0  0  0  0  0
   10.7182   -4.2104   15.5642 O   0  0  0  0  0  0  0  0  0  0  0  0
   11.0510   -3.3487   19.1570 C   0  0  0  0  0  0  0  0  0  0  0  0
    8.1337   -7.0424   16.1537 C   0  0  0  0  0  0  0  0  0  0  0  0
    0.9272  -10.3439   17.0632 C   0  0  0  0  0  0  0  0  0  0  0  0
    8.8564   -0.9205   26.9472 C   0  0  0  0  0  0  0  0  0  0  0  0
   10.0289   -5.8895   18.4999 C   0  0  0  0  0  0  0  0  0  0  0  0
   11.4516   -2.3082   19.7683 O   0  0  0  0  0  0  0  0  0  0  0  0
    6.0804   -8.9148   15.5919 C   0  0  0  0  0  0  0  0  0  0  0  0
    1.6439  -12.4357   20.1646 C   0  0  0  0  0  0  0  0  0  0  0  0
    8.8088    0.4556   24.6341 C   0  0  0  0  0  0  0  0  0  0  0  0
    0.0295  -11.6711   18.0902 N   0  0  0  0  0  0  0  0  0  0  0  0
    9.5309   -5.1161   17.1170 C   0  0  0  0  0  0  0  0  0  0  0  0
    3.5432   -9.5086   17.2728 C   0  0  0  0  0  0  0  0  0  0  0  0
    0.2832  -12.9407   18.8690 C   0  0  0  0  0  0  0  0  0  0  0  0
    2.5941   -9.4810   16.4939 C   0  0  0  0  0  0  0  0  0  0  0  0
    9.7663   -7.5635   18.3465 C   0  0  0  0  0  0  0  0  0  0  0  0
    1.3334  -10.8183   17.8356 C   0  0  0  0  0  0  0  0  0  0  0  0
    6.7016   -8.0105   17.7566 He  0  0  0  0  0  0  0  0  0  0  0  0
    5.4070   -9.6789   15.1633 He  0  0  0  0  0  0  0  0  0  0  0  0
    9.0792   -5.6982   16.3008 He  0  0  0  0  0  0  0  0  0  0  0  0
    5.7094   -8.4757   18.1148 He  0  0  0  0  0  0  0  0  0  0  0  0
    7.3390   -6.8114   16.3834 He  0  0  0  0  0  0  0  0  0  0  0  0
  1 17  1  0
  1 22  1  0
  2 12  4  0
  2 20  3  0
  3  9  4  0
  3 13  1  0
  3 14  3  0
  3 18  4  0
  3 22  1  0
  4  7  4  0
  4  8  1  0
  4 10  4  0
  4 29  4  0
  5 11  4  0
  5 14  4  0
  6 12  3  0
  6 20  1  0
  7 12  3  0
  8 17  2  0
  8 19  4  0
  8 28  3  0
  8 29  2  0
  9 14  4  0
  9 25  4  0
  9 27  3  0
 10 17  1  0
 10 25  4  0
 11 24  4  0
 12 21  1  0
 12 23  3  0
 12 24  3  0
 12 25  1  0
 14 15  2  0
 14 19  1  0
 16 20  4  0
 16 27  4  0
 18 21  3  0
 18 28  1  0
 19 22  3  0
 19 23  4  0
 19 26  3  0
 20 21  2  0
 22 25  2  0
 23 29  4  0
 25 27  4  0
 26 29  4  0
M  END
$$$$

 Created by Python create_sdf_string function

 34 36  0  0  0  0  0  0  0  0999 V2000
    9.2552   -0.7885   25.4013 N   0  0  0  0  0  0  0  0  0  0  0  0
    9.8493   -1.6696   24.4959 C   0  0  0  0  0  0  0  0  0  0  0  0
   10.0488   -5.6758   19.6228 C   0  0  0  0  0  0  0  0  0  0  0  0
    2.4518  -11.1842   18.5980 C   0  0  0  0  0  0  0  0  0  0  0  0
   10.9455   -3.3022   17.8882 C   0  0  0  0  0  0  0  0  0  0  0  0
    7.2381   -8.3693   15.4280 C   0  0  0  0  0  0  0  0  0  0  0  0
    2.4413  -12.0935   19.7071 C   0  0  0  0  0  0  0  0  0  0  0  0
    5.7233   -9.5873   19.0197 O   0  0  0  0  0  0  0  0  0  0  0  0
   10.5554   -4.4411   19.9662 C   0  0  0  0  0  0  0  0  0  0  0  0
    3.5759  -10.5905   18.2551 N   0  0  0  0  0  0  0  0  0  0  0  0
   10.5548   -4.1658   16.9667 C   0  0  0  0  0  0  0  0  0  0  0  0
    4.9569   -9.2710   16.7585 C   0  0  0  0  0  0  0  0  0  0  0  0
   10.7259   -3.8917   15.6780 O   0  0  0  0  0  0  0  0  0  0  0  0
   10.9642   -3.3872   19.2002 C   0  0  0  0  0  0  0  0  0  0  0  0
    8.2344   -6.6005   16.1779 C   0  0  0  0  0  0  0  0  0  0  0  0
    6.6215   -7.7383   17.6991 C   0  0  0  0  0  0  0  0  0  0  0  0
    1.3331  -10.0537   16.8333 C   0  0  0  0  0  0  0  0  0  0  0  0
    8.9477   -1.0495   26.6937 C   0  0  0  0  0  0  0  0  0  0  0  0
    9.8517   -6.0349   18.4573 C   0  0  0  0  0  0  0  0  0  0  0  0
   11.4527   -2.3309   19.8420 O   0  0  0  0  0  0  0  0  0  0  0  0
    5.1889   -9.5760   15.2297 C   0  0  0  0  0  0  0  0  0  0  0  0
    6.2663   -9.1970   15.2488 C   0  0  0  0  0  0  0  0  0  0  0  0
    8.9776   -5.7529   16.2324 C   0  0  0  0  0  0  0  0  0  0  0  0
    1.3800  -12.8798   19.9093 C   0  0  0  0  0  0  0  0  0  0  0  0
    8.8048    0.4883   24.8298 C   0  0  0  0  0  0  0  0  0  0  0  0
    5.8021   -8.7941   17.8886 C   0  0  0  0  0  0  0  0  0  0  0  0
    0.2130  -11.8001   18.1489 N   0  0  0  0  0  0  0  0  0  0  0  0
    9.8527   -5.2901   17.2829 C   0  0  0  0  0  0  0  0  0  0  0  0
    3.6820   -9.7984   17.2151 C   0  0  0  0  0  0  0  0  0  0  0  0
    0.2657  -12.7048   19.1862 C   0  0  0  0  0  0  0  0  0  0  0  0
    2.5496   -9.5083   16.4920 C   0  0  0  0  0  0  0  0  0  0  0  0
    9.6488   -7.4588   18.4329 C   0  0  0  0  0  0  0  0  0  0  0  0
    1.3044  -11.0364   17.8685 C   0  0  0  0  0  0  0  0  0  0  0  0
    7.2729   -7.3644   16.4502 N   0  0  0  0  0  0  0  0  0  0  0  0
  1  2  1  0
  1 18  1  0
  1 25  1  0
  3  9  4  0
  3 19  4  0
  4  7  4  0
  4 10  4  0
  4 33  4  0
  5 11  4  0
  5 14  4  0
  6 22  1  0
  6 34  1  0
  7 24  4  0
  8 26  1  0
  9 14  4  0
 10 29  4  0
 11 13  1  0
 11 28  4  0
 12 21  1  0
 12 26  1  0
 12 29  1  0
 14 20  1  0
 15 23  2  0
 15 34  1  0
 16 26  1  0
 16 34  1  0
 17 31  4  0
 17 33  4  0
 19 28  4  0
 19 32  1  0
 21 22  1  0
 23 28  1  0
 24 30  4  0
 27 30  4  0
 27 33  4  0
 29 31  4  0
M  END
$$$$

 Created by Python create_sdf_string function

 34 69  0  0  0  0  0  0  0  0999 V2000
    9.3230   -0.7501   25.4597 N   0  0  0  0  0  0  0  0  0  0  0  0
    9.9432   -1.9243   24.2583 C   0  0  0  0  0  0  0  0  0  0  0  0
   10.2041   -5.5829   19.8736 P   0  0  0  0  0  0  0  0  0  0  0  0
    2.4815  -11.3819   18.6168 C   0  0  0  0  0  0  0  0  0  0  0  0
   10.6541   -3.3974   17.7725 C   0  0  0  0  0  0  0  0  0  0  0  0
    7.4540   -8.4567   15.6382 C   0  0  0  0  0  0  0  0  0  0  0  0
    2.3294  -12.0333   19.8389 N   0  0  0  0  0  0  0  0  0  0  0  0
    5.6419   -9.9166   18.9941 O   0  0  0  0  0  0  0  0  0  0  0  0
   10.3412   -4.1444   20.1749 C   0  0  0  0  0  0  0  0  0  0  0  0
   10.2576   -4.2424   16.9526 F   0  0  0  0  0  0  0  0  0  0  0  0
    4.7310   -8.8979   15.9241 Cl  0  0  0  0  0  0  0  0  0  0  0  0
   10.6960   -3.7834   15.8898 O   0  0  0  0  0  0  0  0  0  0  0  0
    8.3729   -6.2396   15.8375 C   0  0  0  0  0  0  0  0  0  0  0  0
    6.5353   -7.3774   17.8230 C   0  0  0  0  0  0  0  0  0  0  0  0
    1.2260  -10.1115   16.8184 C   0  0  0  0  0  0  0  0  0  0  0  0
    8.7774   -0.6518   26.6275 C   0  0  0  0  0  0  0  0  0  0  0  0
    9.8135   -5.9543   18.6308 C   0  0  0  0  0  0  0  0  0  0  0  0
   11.4145   -2.0522   19.6145 O   0  0  0  0  0  0  0  0  0  0  0  0
    5.2261   -9.4993   14.9083 C   0  0  0  0  0  0  0  0  0  0  0  0
    6.4925   -9.8995   15.6520 N   0  0  0  0  0  0  0  0  0  0  0  0
    8.2927   -6.0517   16.2980 Cl  0  0  0  0  0  0  0  0  0  0  0  0
    1.0642  -12.9587   20.0261 C   0  0  0  0  0  0  0  0  0  0  0  0
    9.0175    0.7012   24.8143 C   0  0  0  0  0  0  0  0  0  0  0  0
    0.1676  -11.5010   18.2857 N   0  0  0  0  0  0  0  0  0  0  0  0
    9.9357   -5.2401   17.3724 C   0  0  0  0  0  0  0  0  0  0  0  0
    3.6441   -9.9540   17.3815 C   0  0  0  0  0  0  0  0  0  0  0  0
    0.1774  -13.0253   19.3259 C   0  0  0  0  0  0  0  0  0  0  0  0
    2.3995   -9.2151   16.4506 C   0  0  0  0  0  0  0  0  0  0  0  0
    9.4836   -7.6175   18.3725 C   0  0  0  0  0  0  0  0  0  0  0  0
    1.2284  -11.0402   17.9290 C   0  0  0  0  0  0  0  0  0  0  0  0
    7.5181   -7.5957   16.2770 N   0  0  0  0  0  0  0  0  0  0  0  0
    3.5993  -10.4230   17.8842 He  0  0  0  0  0  0  0  0  0  0  0  0
   11.0903   -2.7952   19.1359 He  0  0  0  0  0  0  0  0  0  0  0  0
    5.0271   -8.5893   17.9055 He  0  0  0  0  0  0  0  0  0  0  0  0
  1 15  1  0
  1 23  1  0
  1 31  1  0
  2 23  4  0
  3  8  1  0
  3  9  4  0
  3 15  3  0
  3 17  4  0
  3 31  3  0
  4  7  4  0
  4 10  4  0
  4 14  1  0
  4 16  2  0
  4 27  4  0
  4 30  4  0
  4 31  2  0
  5 18  1  0
  6  9  4  0
  6 11  2  0
  6 18  4  0
  6 20  1  0
  6 21  1  0
  6 31  1  0
  7  8  4  0
  7 25  3  0
  8 14  3  0
  8 15  2  0
  8 16  2  0
  8 22  4  0
  8 23  1  0
  8 25  1  0
  8 26  2  0
  8 28  3  0
  8 29  1  0
  9 19  2  0
 10 12  3  0
 10 22  3  0
 10 25  4  0
 10 27  2  0
 11 18  4  0
 11 23  1  0
 11 26  1  0
 12 17  1  0
 12 29  2  0
 13 14  2  0
 13 21  2  0
 13 31  1  0
 14 24  4  0
 14 31  1  0
 15 22  2  0
 15 28  4  0
 15 30  4  0
 15 31  2  0
 16 31  1  0
 17 25  3  0
 17 29  1  0
 17 31  2  0
 18 29  1  0
 19 26  2  0
 19 31  3  0
 20 22  2  0
 20 29  3  0
 20 31  1  0
 21 25  1  0
 22 30  2  0
 24 27  4  0
 26 28  4  0
 26 31  2  0
 27 28  4  0
M  END
$$$$

 Created by Python create_sdf_string function

 34 36  0  0  0  0  0  0  0  0999 V2000
    9.3175   -0.6880   25.2807 N   0  0  0  0  0  0  0  0  0  0  0  0
    9.7745   -1.6918   24.4130 C   0  0  0  0  0  0  0  0  0  0  0  0
   10.1764   -5.5527   19.8744 C   0  0  0  0  0  0  0  0  0  0  0  0
    2.4046  -11.2038   18.6037 C   0  0  0  0  0  0  0  0  0  0  0  0
   10.8179   -3.2502   17.8659 C   0  0  0  0  0  0  0  0  0  0  0  0
    7.5239   -8.7414   15.5934 C   0  0  0  0  0  0  0  0  0  0  0  0
    2.3782  -12.1146   19.6613 N   0  0  0  0  0  0  0  0  0  0  0  0
    5.6972   -9.1195   18.9197 O   0  0  0  0  0  0  0  0  0  0  0  0
   10.5404   -4.2841   20.0676 C   0  0  0  0  0  0  0  0  0  0  0  0
    3.5417  -10.5423   18.2139 N   0  0  0  0  0  0  0  0  0  0  0  0
   10.3072   -4.1155   16.9899 C   0  0  0  0  0  0  0  0  0  0  0  0
    4.6778   -9.1284   16.7015 N   0  0  0  0  0  0  0  0  0  0  0  0
   10.4397   -3.8364   15.6735 O   0  0  0  0  0  0  0  0  0  0  0  0
   10.8559   -3.2516   19.1947 C   0  0  0  0  0  0  0  0  0  0  0  0
    8.1191   -6.4476   16.0601 C   0  0  0  0  0  0  0  0  0  0  0  0
    6.3753   -7.5357   17.4833 C   0  0  0  0  0  0  0  0  0  0  0  0
    1.1698  -10.0895   16.9252 C   0  0  0  0  0  0  0  0  0  0  0  0
    8.8379   -0.8703   26.5452 C   0  0  0  0  0  0  0  0  0  0  0  0
    9.7924   -5.9996   18.5691 C   0  0  0  0  0  0  0  0  0  0  0  0
   11.3176   -2.1071   19.7454 O   0  0  0  0  0  0  0  0  0  0  0  0
    5.1901   -9.3986   15.3531 C   0  0  0  0  0  0  0  0  0  0  0  0
    6.5851   -9.7132   15.3047 C   0  0  0  0  0  0  0  0  0  0  0  0
    8.6497   -5.7541   16.3130 C   0  0  0  0  0  0  0  0  0  0  0  0
    1.2648  -12.8090   19.9789 C   0  0  0  0  0  0  0  0  0  0  0  0
    9.0764    0.6227   24.6636 C   0  0  0  0  0  0  0  0  0  0  0  0
    5.5793   -8.6191   17.6990 C   0  0  0  0  0  0  0  0  0  0  0  0
    0.0906  -11.7776   18.2530 N   0  0  0  0  0  0  0  0  0  0  0  0
    9.6557   -5.1993   17.4024 C   0  0  0  0  0  0  0  0  0  0  0  0
    3.5255   -9.7318   17.1479 C   0  0  0  0  0  0  0  0  0  0  0  0
    0.1315  -12.6217   19.2474 C   0  0  0  0  0  0  0  0  0  0  0  0
    2.3458   -9.4800   16.4990 C   0  0  0  0  0  0  0  0  0  0  0  0
    9.5355   -7.4510   18.4822 C   0  0  0  0  0  0  0  0  0  0  0  0
    1.2175  -11.0280   17.9383 C   0  0  0  0  0  0  0  0  0  0  0  0
    7.2564   -7.5208   16.2606 N   0  0  0  0  0  0  0  0  0  0  0  0
  1  2  1  0
  1 18  1  0
  1 25  1  0
  3  9  4  0
  3 19  4  0
  4  7  4  0
  4 10  4  0
  4 33  4  0
  5 11  4  0
  5 14  4  0
  6 22  1  0
  6 34  1  0
  7 24  4  0
  8 26  1  0
  9 14  4  0
 10 29  4  0
 11 13  1  0
 11 28  4  0
 12 21  1  0
 12 26  1  0
 12 29  1  0
 14 20  1  0
 15 23  2  0
 15 34  1  0
 16 26  1  0
 16 34  1  0
 17 31  4  0
 17 33  4  0
 19 28  4  0
 19 32  1  0
 21 22  1  0
 23 28  1  0
 24 30  4  0
 27 30  4  0
 27 33  4  0
 29 31  4  0
M  END
$$$$

 Created by Python create_sdf_string function

 34 52  0  0  0  0  0  0  0  0999 V2000
    9.1359   -0.6874   24.9633 N   0  0  0  0  0  0  0  0  0  0  0  0
   10.0948   -5.5737   19.5508 C   0  0  0  0  0  0  0  0  0  0  0  0
    2.4393  -11.3135   18.7989 C   0  0  0  0  0  0  0  0  0  0  0  0
   11.0719   -3.0055   17.8364 C   0  0  0  0  0  0  0  0  0  0  0  0
    7.2704   -8.6647   15.6395 C   0  0  0  0  0  0  0  0  0  0  0  0
    6.1823   -9.4783   19.4217 O   0  0  0  0  0  0  0  0  0  0  0  0
   10.6699   -4.3708   20.1578 C   0  0  0  0  0  0  0  0  0  0  0  0
    3.3275  -10.5878   18.4252 N   0  0  0  0  0  0  0  0  0  0  0  0
   10.4908   -4.2933   16.7860 C   0  0  0  0  0  0  0  0  0  0  0  0
    5.4814   -9.1517   16.2748 N   0  0  0  0  0  0  0  0  0  0  0  0
   10.5936   -4.0022   15.8310 C   0  0  0  0  0  0  0  0  0  0  0  0
   10.5804   -3.5954   19.1847 C   0  0  0  0  0  0  0  0  0  0  0  0
    7.6842   -6.3544   15.9604 C   0  0  0  0  0  0  0  0  0  0  0  0
    6.3373   -7.4850   17.2368 C   0  0  0  0  0  0  0  0  0  0  0  0
    1.3509   -9.9749   17.1294 C   0  0  0  0  0  0  0  0  0  0  0  0
    8.9096   -0.6191   26.8248 C   0  0  0  0  0  0  0  0  0  0  0  0
    9.8722   -5.9755   18.4706 C   0  0  0  0  0  0  0  0  0  0  0  0
   11.1542   -2.0214   19.8265 O   0  0  0  0  0  0  0  0  0  0  0  0
    8.4941   -6.3853   16.0734 C   0  0  0  0  0  0  0  0  0  0  0  0
    1.8370  -12.6979   19.9255 C   0  0  0  0  0  0  0  0  0  0  0  0
    9.0489    0.2751   24.9431 C   0  0  0  0  0  0  0  0  0  0  0  0
    5.6033   -8.7791   17.3629 S   0  0  0  0  0  0  0  0  0  0  0  0
   -0.4357  -12.0704   18.3880 N   0  0  0  0  0  0  0  0  0  0  0  0
    9.5172   -5.2862   17.0299 C   0  0  0  0  0  0  0  0  0  0  0  0
    3.3673   -9.9718   17.2673 C   0  0  0  0  0  0  0  0  0  0  0  0
    2.2406   -9.5950   16.2706 C   0  0  0  0  0  0  0  0  0  0  0  0
    9.4228   -7.2670   18.5243 C   0  0  0  0  0  0  0  0  0  0  0  0
    7.6988   -7.6351   15.7024 N   0  0  0  0  0  0  0  0  0  0  0  0
    9.4517   -1.6680   24.2995 He  0  0  0  0  0  0  0  0  0  0  0  0
    2.4541  -11.8940   19.7336 He  0  0  0  0  0  0  0  0  0  0  0  0
    5.1245   -9.5349   15.4049 He  0  0  0  0  0  0  0  0  0  0  0  0
    6.3886  -10.0602   14.0968 He  0  0  0  0  0  0  0  0  0  0  0  0
    0.1316  -12.6552   19.0871 He  0  0  0  0  0  0  0  0  0  0  0  0
    1.3440  -10.9437   18.1986 He  0  0  0  0  0  0  0  0  0  0  0  0
  1  5  1  0
  1  9  4  0
  1 16  1  0
  1 28  3  0
  2  6  4  0
  2  7  4  0
  2  8  4  0
  2 14  2  0
  2 17  4  0
  3  4  2  0
  3  8  4  0
  3 15  2  0
  3 21  2  0
  4  9  4  0
  4 12  1  0
  5  6  4  0
  5 28  1  0
  6  8  2  0
  6 12  3  0
  6 18  3  0
  6 22  2  0
  7 12  4  0
  7 18  3  0
  7 28  4  0
  8 25  4  0
  9 11  1  0
 10 11  3  0
 10 12  4  0
 10 19  3  0
 10 22  1  0
 10 25  2  0
 11 15  4  0
 11 19  3  0
 11 26  2  0
 11 28  3  0
 12 18  1  0
 13 19  2  0
 13 22  1  0
 13 28  2  0
 14 22  1  0
 14 25  4  0
 14 28  1  0
 15 19  4  0
 15 24  2  0
 15 26  4  0
 16 22  2  0
 16 23  3  0
 17 24  4  0
 17 27  1  0
 20 21  2  0
 20 25  4  0
 25 26  4  0
M  END
$$$$

 Created by Python create_sdf_string function

 34 36  0  0  0  0  0  0  0  0999 V2000
    9.1508   -0.7168   25.2069 N   0  0  0  0  0  0  0  0  0  0  0  0
    9.5656   -1.6918   24.3692 C   0  0  0  0  0  0  0  0  0  0  0  0
   10.1330   -5.5973   19.6601 C   0  0  0  0  0  0  0  0  0  0  0  0
    2.4136  -11.1888   18.6785 C   0  0  0  0  0  0  0  0  0  0  0  0
   10.8127   -3.2694   17.7966 C   0  0  0  0  0  0  0  0  0  0  0  0
    7.5020   -8.7546   15.3344 C   0  0  0  0  0  0  0  0  0  0  0  0
    2.4180  -12.1086   19.7709 C   0  0  0  0  0  0  0  0  0  0  0  0
    5.8279   -9.0507   18.9596 O   0  0  0  0  0  0  0  0  0  0  0  0
   10.5027   -4.4376   19.9436 C   0  0  0  0  0  0  0  0  0  0  0  0
    3.5713  -10.5311   18.3000 N   0  0  0  0  0  0  0  0  0  0  0  0
   10.3116   -4.2313   16.9449 C   0  0  0  0  0  0  0  0  0  0  0  0
    4.8918   -9.3234   16.6715 N   0  0  0  0  0  0  0  0  0  0  0  0
   10.5666   -3.9337   15.4801 C   0  0  0  0  0  0  0  0  0  0  0  0
   10.8403   -3.3878   19.1487 C   0  0  0  0  0  0  0  0  0  0  0  0
    8.0109   -6.4419   15.8390 C   0  0  0  0  0  0  0  0  0  0  0  0
    6.3787   -7.5244   17.1275 C   0  0  0  0  0  0  0  0  0  0  0  0
    1.2562  -10.1051   16.9566 C   0  0  0  0  0  0  0  0  0  0  0  0
    8.9149   -0.8793   26.6279 C   0  0  0  0  0  0  0  0  0  0  0  0
    9.7644   -6.0193   18.4096 C   0  0  0  0  0  0  0  0  0  0  0  0
   11.3041   -2.2568   19.8303 O   0  0  0  0  0  0  0  0  0  0  0  0
    5.1673   -9.4579   15.3273 C   0  0  0  0  0  0  0  0  0  0  0  0
    6.5023   -9.7537   14.9399 C   0  0  0  0  0  0  0  0  0  0  0  0
    8.7921   -5.8915   16.2275 C   0  0  0  0  0  0  0  0  0  0  0  0
    1.3234  -12.8320   20.0142 C   0  0  0  0  0  0  0  0  0  0  0  0
    8.9879    0.6015   24.6948 C   0  0  0  0  0  0  0  0  0  0  0  0
    5.7861   -8.7633   17.6826 C   0  0  0  0  0  0  0  0  0  0  0  0
    0.0970  -11.7928   18.3616 N   0  0  0  0  0  0  0  0  0  0  0  0
    9.6587   -5.3274   17.2570 C   0  0  0  0  0  0  0  0  0  0  0  0
    3.6485   -9.8111   17.2258 C   0  0  0  0  0  0  0  0  0  0  0  0
    0.2045  -12.6884   19.2936 C   0  0  0  0  0  0  0  0  0  0  0  0
    2.4553   -9.5567   16.5703 C   0  0  0  0  0  0  0  0  0  0  0  0
    9.4156   -7.4878   18.4180 C   0  0  0  0  0  0  0  0  0  0  0  0
    1.2347  -11.0232   17.9929 C   0  0  0  0  0  0  0  0  0  0  0  0
    7.1489   -7.6633   15.9795 N   0  0  0  0  0  0  0  0  0  0  0  0
  1  2  1  0
  1 18  1  0
  1 25  1  0
  3  9  4  0
  3 19  4  0
  4  7  4  0
  4 10  4  0
  4 33  4  0
  5 11  4  0
  5 14  4  0
  6 22  1  0
  6 34  1  0
  7 24  4  0
  8 26  2  0
  9 14  4  0
 10 29  4  0
 11 13  1  0
 11 28  4  0
 12 21  1  0
 12 26  1  0
 12 29  1  0
 14 20  1  0
 15 23  2  0
 15 34  1  0
 16 26  1  0
 16 34  1  0
 17 31  4  0
 17 33  4  0
 19 28  4  0
 19 32  1  0
 21 22  1  0
 23 28  1  0
 24 30  4  0
 27 30  4  0
 27 33  4  0
 29 31  4  0
M  END
$$$$

 Created by Python create_sdf_string function

 34 72  0  0  0  0  0  0  0  0999 V2000
    9.0947   -0.6137   24.9749 N   0  0  0  0  0  0  0  0  0  0  0  0
    9.1592   -1.5095   24.3645 C   0  0  0  0  0  0  0  0  0  0  0  0
   10.3024   -5.8447   19.6841 C   0  0  0  0  0  0  0  0  0  0  0  0
    2.2301  -11.2913   18.8572 C   0  0  0  0  0  0  0  0  0  0  0  0
   10.6915   -3.3682   17.8469 C   0  0  0  0  0  0  0  0  0  0  0  0
    2.5794  -12.2125   19.8505 C   0  0  0  0  0  0  0  0  0  0  0  0
    5.6839   -8.9085   19.6675 O   0  0  0  0  0  0  0  0  0  0  0  0
   10.6173   -4.4806   19.8336 C   0  0  0  0  0  0  0  0  0  0  0  0
    3.7044  -10.5275   18.2745 N   0  0  0  0  0  0  0  0  0  0  0  0
   10.5136   -3.7500   17.0525 C   0  0  0  0  0  0  0  0  0  0  0  0
   10.4817   -4.0586   15.5477 C   0  0  0  0  0  0  0  0  0  0  0  0
   10.9579   -3.3540   19.1672 C   0  0  0  0  0  0  0  0  0  0  0  0
    6.3851   -7.6744   17.4382 C   0  0  0  0  0  0  0  0  0  0  0  0
    1.1972  -10.0681   16.9636 C   0  0  0  0  0  0  0  0  0  0  0  0
    8.8366   -0.7780   26.6519 C   0  0  0  0  0  0  0  0  0  0  0  0
    9.5973   -6.0659   18.2373 C   0  0  0  0  0  0  0  0  0  0  0  0
   11.5152   -2.0528   19.8156 O   0  0  0  0  0  0  0  0  0  0  0  0
    5.0562   -9.6486   15.3603 Se  0  0  0  0  0  0  0  0  0  0  0  0
    6.7590  -10.1137   14.5178 P   0  0  0  0  0  0  0  0  0  0  0  0
    8.5965   -5.3207   16.3449 C   0  0  0  0  0  0  0  0  0  0  0  0
    1.3503  -12.6560   20.0733 C   0  0  0  0  0  0  0  0  0  0  0  0
    8.8509    0.4480   24.5363 C   0  0  0  0  0  0  0  0  0  0  0  0
    5.7180   -9.1854   17.1167 C   0  0  0  0  0  0  0  0  0  0  0  0
    0.2009  -11.6372   18.4002 N   0  0  0  0  0  0  0  0  0  0  0  0
    9.6374   -5.4824   17.4608 C   0  0  0  0  0  0  0  0  0  0  0  0
    3.9519   -9.4406   17.2343 C   0  0  0  0  0  0  0  0  0  0  0  0
    2.5757   -9.6655   16.7842 C   0  0  0  0  0  0  0  0  0  0  0  0
    9.6087   -7.4748   18.9410 C   0  0  0  0  0  0  0  0  0  0  0  0
    1.3886  -11.2349   18.3672 C   0  0  0  0  0  0  0  0  0  0  0  0
    6.9693   -7.7634   16.4743 N   0  0  0  0  0  0  0  0  0  0  0  0
    7.7326   -8.7791   15.4736 He  0  0  0  0  0  0  0  0  0  0  0  0
    4.8193   -9.5153   17.1631 He  0  0  0  0  0  0  0  0  0  0  0  0
    8.0717   -6.3180   15.6423 He  0  0  0  0  0  0  0  0  0  0  0  0
    0.3276  -12.8398   19.6263 He  0  0  0  0  0  0  0  0  0  0  0  0
  1  2  4  0
  1 15  1  0
  1 22  1  0
  2  5  3  0
  2 20  4  0
  2 25  3  0
  2 30  2  0
  3  5  3  0
  3  8  4  0
  3 12  4  0
  3 16  4  0
  3 30  4  0
  4  6  4  0
  4  7  2  0
  4 19  3  0
  4 24  2  0
  4 29  4  0
  5  8  3  0
  5 10  4  0
  5 12  4  0
  5 18  2  0
  5 20  4  0
  6 21  4  0
  6 22  4  0
  6 23  3  0
  6 24  3  0
  7  8  2  0
  7  9  3  0
  7 16  3  0
  7 23  2  0
  8 12  4  0
  8 30  3  0
  9 19  1  0
  9 22  4  0
  9 26  4  0
 10 11  1  0
 10 25  4  0
 11 15  2  0
 11 19  4  0
 11 30  4  0
 12 14  3  0
 13 14  3  0
 13 28  2  0
 13 30  3  0
 14 26  1  0
 14 27  4  0
 14 29  1  0
 15 23  3  0
 15 26  4  0
 16 19  4  0
 16 22  3  0
 16 25  4  0
 16 28  1  0
 17 20  4  0
 17 26  4  0
 18 19  1  0
 19 21  4  0
 20 21  2  0
 20 25  1  0
 20 26  4  0
 20 27  2  0
 20 30  3  0
 21 25  3  0
 21 30  2  0
 22 29  2  0
 23 24  2  0
 23 26  2  0
 24 29  4  0
 24 30  1  0
 25 28  3  0
 25 30  3  0
 26 27  4  0
M  END
$$$$

 Created by Python create_sdf_string function

 34 36  0  0  0  0  0  0  0  0999 V2000
    9.0741   -0.5712   25.1507 N   0  0  0  0  0  0  0  0  0  0  0  0
    9.4594   -1.6920   24.3299 C   0  0  0  0  0  0  0  0  0  0  0  0
   10.2575   -5.6356   19.6450 C   0  0  0  0  0  0  0  0  0  0  0  0
    2.4833  -11.2645   18.8133 C   0  0  0  0  0  0  0  0  0  0  0  0
   10.7965   -3.3110   17.8916 C   0  0  0  0  0  0  0  0  0  0  0  0
    7.5616   -8.6786   15.2603 C   0  0  0  0  0  0  0  0  0  0  0  0
    2.4971  -12.1931   19.9228 C   0  0  0  0  0  0  0  0  0  0  0  0
    5.7796   -9.0319   19.0627 O   0  0  0  0  0  0  0  0  0  0  0  0
   10.6894   -4.4415   19.9335 C   0  0  0  0  0  0  0  0  0  0  0  0
    3.6568  -10.6358   18.4539 N   0  0  0  0  0  0  0  0  0  0  0  0
   10.2271   -4.1914   17.0539 C   0  0  0  0  0  0  0  0  0  0  0  0
    4.9051   -9.4636   16.8277 N   0  0  0  0  0  0  0  0  0  0  0  0
   10.3460   -3.8277   15.6052 C   0  0  0  0  0  0  0  0  0  0  0  0
   10.9427   -3.3514   19.1954 C   0  0  0  0  0  0  0  0  0  0  0  0
    8.0924   -6.4714   15.8198 C   0  0  0  0  0  0  0  0  0  0  0  0
    6.5154   -7.7229   17.2193 C   0  0  0  0  0  0  0  0  0  0  0  0
    1.3433  -10.1002   17.0915 C   0  0  0  0  0  0  0  0  0  0  0  0
    8.8267   -0.7612   26.5124 C   0  0  0  0  0  0  0  0  0  0  0  0
    9.7588   -6.1075   18.4549 C   0  0  0  0  0  0  0  0  0  0  0  0
   11.3832   -2.2729   19.7992 O   0  0  0  0  0  0  0  0  0  0  0  0
    5.2387   -9.6697   15.4827 C   0  0  0  0  0  0  0  0  0  0  0  0
    6.5448   -9.7287   15.0474 C   0  0  0  0  0  0  0  0  0  0  0  0
    8.5326   -5.6230   16.4015 C   0  0  0  0  0  0  0  0  0  0  0  0
    1.3956  -12.8625   20.2204 C   0  0  0  0  0  0  0  0  0  0  0  0
    8.8730    0.7117   24.5780 C   0  0  0  0  0  0  0  0  0  0  0  0
    5.7944   -8.8027   17.7404 C   0  0  0  0  0  0  0  0  0  0  0  0
    0.2027  -11.7917   18.5269 N   0  0  0  0  0  0  0  0  0  0  0  0
    9.5566   -5.3013   17.3512 C   0  0  0  0  0  0  0  0  0  0  0  0
    3.7105   -9.8993   17.3762 C   0  0  0  0  0  0  0  0  0  0  0  0
    0.2730  -12.6508   19.5438 C   0  0  0  0  0  0  0  0  0  0  0  0
    2.5353   -9.5742   16.7223 C   0  0  0  0  0  0  0  0  0  0  0  0
    9.4761   -7.5129   18.4377 C   0  0  0  0  0  0  0  0  0  0  0  0
    1.2979  -11.0671   18.1421 C   0  0  0  0  0  0  0  0  0  0  0  0
    7.2842   -7.6823   16.1242 N   0  0  0  0  0  0  0  0  0  0  0  0
  1  2  1  0
  1 18  1  0
  1 25  1  0
  3  9  4  0
  3 19  4  0
  4  7  4  0
  4 10  4  0
  4 33  4  0
  5 11  4  0
  5 14  4  0
  6 22  1  0
  6 34  1  0
  7 24  4  0
  8 26  2  0
  9 14  4  0
 10 29  4  0
 11 13  1  0
 11 28  4  0
 12 21  1  0
 12 26  1  0
 12 29  1  0
 14 20  1  0
 15 23  1  0
 15 34  1  0
 16 26  1  0
 16 34  1  0
 17 31  4  0
 17 33  4  0
 19 28  4  0
 19 32  1  0
 21 22  1  0
 23 28  1  0
 24 30  4  0
 27 30  4  0
 27 33  4  0
 29 31  4  0
M  END
$$$$

 Created by Python create_sdf_string function

 34 62  0  0  0  0  0  0  0  0999 V2000
    8.8523   -0.8265   25.4833 N   0  0  0  0  0  0  0  0  0  0  0  0
    9.6106   -2.0185   23.8305 C   0  0  0  0  0  0  0  0  0  0  0  0
   10.2173   -5.7134   19.6070 C   0  0  0  0  0  0  0  0  0  0  0  0
    2.5843  -10.9544   18.6878 C   0  0  0  0  0  0  0  0  0  0  0  0
   10.7119   -3.1719   17.6001 C   0  0  0  0  0  0  0  0  0  0  0  0
    7.4713   -8.8015   15.3502 C   0  0  0  0  0  0  0  0  0  0  0  0
    2.3539  -11.7195   19.8865 C   0  0  0  0  0  0  0  0  0  0  0  0
   10.8326   -4.4596   19.7771 C   0  0  0  0  0  0  0  0  0  0  0  0
    3.7706  -10.5441   18.4050 N   0  0  0  0  0  0  0  0  0  0  0  0
   10.1881   -4.0883   16.9711 C   0  0  0  0  0  0  0  0  0  0  0  0
    4.4430   -9.3494   16.4939 N   0  0  0  0  0  0  0  0  0  0  0  0
   10.3719   -3.6115   15.8206 C   0  0  0  0  0  0  0  0  0  0  0  0
    8.1816   -6.1358   15.7042 C   0  0  0  0  0  0  0  0  0  0  0  0
    6.4205   -7.6228   17.0524 F   0  0  0  0  0  0  0  0  0  0  0  0
    1.2609  -10.3578   17.3889 C   0  0  0  0  0  0  0  0  0  0  0  0
    8.9345   -0.5871   26.5479 C   0  0  0  0  0  0  0  0  0  0  0  0
    9.3993   -5.9678   18.5464 C   0  0  0  0  0  0  0  0  0  0  0  0
   11.5160   -2.1483   19.8646 O   0  0  0  0  0  0  0  0  0  0  0  0
    5.1862   -9.5373   15.3383 C   0  0  0  0  0  0  0  0  0  0  0  0
    8.9595   -5.4923   16.1072 C   0  0  0  0  0  0  0  0  0  0  0  0
    1.5794  -12.7905   20.2568 C   0  0  0  0  0  0  0  0  0  0  0  0
    8.6167    0.5512   24.5680 C   0  0  0  0  0  0  0  0  0  0  0  0
    5.2677   -9.1067   17.7930 F   0  0  0  0  0  0  0  0  0  0  0  0
    0.1563  -11.5690   18.4514 N   0  0  0  0  0  0  0  0  0  0  0  0
    3.6791  -10.0554   17.5145 C   0  0  0  0  0  0  0  0  0  0  0  0
    0.4646  -12.4314   19.1231 C   0  0  0  0  0  0  0  0  0  0  0  0
    2.7376   -9.8235   16.4551 C   0  0  0  0  0  0  0  0  0  0  0  0
    9.6620   -7.5118   18.5014 C   0  0  0  0  0  0  0  0  0  0  0  0
    1.2984  -11.0020   18.4856 C   0  0  0  0  0  0  0  0  0  0  0  0
    7.7224   -6.8011   16.5143 F   0  0  0  0  0  0  0  0  0  0  0  0
    5.3382   -9.6390   19.2069 He  0  0  0  0  0  0  0  0  0  0  0  0
   11.0611   -3.1509   19.3835 He  0  0  0  0  0  0  0  0  0  0  0  0
    6.6867   -9.4134   15.2315 He  0  0  0  0  0  0  0  0  0  0  0  0
    9.3536   -5.0502   17.0760 He  0  0  0  0  0  0  0  0  0  0  0  0
  1  2  1  0
  1 16  1  0
  1 22  1  0
  2 11  1  0
  2 13  1  0
  2 16  3  0
  3  8  4  0
  4  7  4  0
  4  9  4  0
  4 18  1  0
  4 29  4  0
  5  6  2  0
  5 10  4  0
  6 11  4  0
  6 27  3  0
  6 30  1  0
  7  9  2  0
  7 17  1  0
  7 20  3  0
  7 21  4  0
  7 22  3  0
  7 28  3  0
  8 11  2  0
  8 15  2  0
  8 19  1  0
  8 24  2  0
  8 30  3  0
  9 11  1  0
  9 15  2  0
  9 16  1  0
  9 18  3  0
  9 25  2  0
  9 30  4  0
 10 12  1  0
 10 17  2  0
 10 20  1  0
 10 23  1  0
 10 27  4  0
 11 19  1  0
 11 23  1  0
 11 24  4  0
 12 19  3  0
 12 21  4  0
 13 24  3  0
 13 30  1  0
 14 23  1  0
 14 30  1  0
 15 27  4  0
 15 30  4  0
 16 30  2  0
 17 21  1  0
 17 28  1  0
 19 27  3  0
 20 24  2  0
 20 26  1  0
 21 25  4  0
 21 27  1  0
 23 28  3  0
 24 26  4  0
 24 29  4  0
 25 27  4  0
 26 30  4  0
M  END
$$$$

 Created by Python create_sdf_string function

 34 36  0  0  0  0  0  0  0  0999 V2000
    9.0058   -0.7716   25.1694 N   0  0  0  0  0  0  0  0  0  0  0  0
    9.6210   -1.7308   24.2418 C   0  0  0  0  0  0  0  0  0  0  0  0
   10.1533   -5.5991   19.5058 C   0  0  0  0  0  0  0  0  0  0  0  0
    2.4700  -11.1986   18.7984 C   0  0  0  0  0  0  0  0  0  0  0  0
   10.8098   -3.1521   17.8899 C   0  0  0  0  0  0  0  0  0  0  0  0
    7.5771   -8.5758   15.3350 C   0  0  0  0  0  0  0  0  0  0  0  0
    2.4757  -12.0493   19.9355 C   0  0  0  0  0  0  0  0  0  0  0  0
    5.7270   -9.1125   18.9571 O   0  0  0  0  0  0  0  0  0  0  0  0
   10.6922   -4.4528   19.8919 C   0  0  0  0  0  0  0  0  0  0  0  0
    3.6111  -10.5483   18.3938 N   0  0  0  0  0  0  0  0  0  0  0  0
   10.2165   -4.0587   17.0515 C   0  0  0  0  0  0  0  0  0  0  0  0
    4.7868   -9.3721   16.8212 N   0  0  0  0  0  0  0  0  0  0  0  0
   10.2925   -3.5659   15.6857 C   0  0  0  0  0  0  0  0  0  0  0  0
   11.0014   -3.2884   19.2320 C   0  0  0  0  0  0  0  0  0  0  0  0
    8.0118   -6.2677   15.8574 C   0  0  0  0  0  0  0  0  0  0  0  0
    6.3387   -7.6001   17.2447 C   0  0  0  0  0  0  0  0  0  0  0  0
    1.2699  -10.1858   17.0534 C   0  0  0  0  0  0  0  0  0  0  0  0
    8.9953   -0.8766   26.5101 C   0  0  0  0  0  0  0  0  0  0  0  0
    9.6534   -6.0620   18.3053 C   0  0  0  0  0  0  0  0  0  0  0  0
   11.4603   -2.2970   19.8645 O   0  0  0  0  0  0  0  0  0  0  0  0
    5.2323   -9.3955   15.4569 C   0  0  0  0  0  0  0  0  0  0  0  0
    6.6101   -9.5319   15.2010 C   0  0  0  0  0  0  0  0  0  0  0  0
    8.8253   -5.4845   16.0812 C   0  0  0  0  0  0  0  0  0  0  0  0
    1.3572  -12.7475   20.2634 C   0  0  0  0  0  0  0  0  0  0  0  0
    8.7326    0.5738   24.5910 C   0  0  0  0  0  0  0  0  0  0  0  0
    5.6818   -8.7700   17.7542 C   0  0  0  0  0  0  0  0  0  0  0  0
    0.1739  -11.7456   18.5472 N   0  0  0  0  0  0  0  0  0  0  0  0
    9.6090   -5.2052   17.2140 C   0  0  0  0  0  0  0  0  0  0  0  0
    3.6149   -9.8874   17.3004 C   0  0  0  0  0  0  0  0  0  0  0  0
    0.2427  -12.5858   19.5621 C   0  0  0  0  0  0  0  0  0  0  0  0
    2.4599   -9.6723   16.6090 C   0  0  0  0  0  0  0  0  0  0  0  0
    9.3154   -7.4057   18.3265 C   0  0  0  0  0  0  0  0  0  0  0  0
    1.2868  -11.0517   18.1350 C   0  0  0  0  0  0  0  0  0  0  0  0
    7.4600   -7.4412   16.3269 N   0  0  0  0  0  0  0  0  0  0  0  0
  1  2  1  0
  1 18  1  0
  1 25  1  0
  3  9  4  0
  3 19  4  0
  4  7  4  0
  4 10  4  0
  4 33  4  0
  5 11  4  0
  5 14  4  0
  6 22  1  0
  6 34  1  0
  7 24  4  0
  8 26  2  0
  9 14  4  0
 10 29  4  0
 11 13  1  0
 11 28  4  0
 12 21  1  0
 12 26  1  0
 12 29  1  0
 14 20  1  0
 15 23  1  0
 15 34  1  0
 16 26  1  0
 16 34  1  0
 17 31  4  0
 17 33  4  0
 19 28  4  0
 19 32  1  0
 21 22  1  0
 23 28  1  0
 24 30  4  0
 27 30  4  0
 27 33  4  0
 29 31  4  0
M  END
$$$$

 Created by Python create_sdf_string function

 34 56  0  0  0  0  0  0  0  0999 V2000
    8.9441   -0.5078   25.2893 O   0  0  0  0  0  0  0  0  0  0  0  0
    9.5818   -1.6896   24.3895 C   0  0  0  0  0  0  0  0  0  0  0  0
    9.8881   -5.6371   19.5241 C   0  0  0  0  0  0  0  0  0  0  0  0
    2.5518  -11.0252   18.7825 C   0  0  0  0  0  0  0  0  0  0  0  0
   10.7846   -3.2339   17.6862 C   0  0  0  0  0  0  0  0  0  0  0  0
    7.5866   -8.5184   15.3005 C   0  0  0  0  0  0  0  0  0  0  0  0
    2.1588  -12.3329   19.9577 C   0  0  0  0  0  0  0  0  0  0  0  0
   10.6666   -4.4014   19.7160 C   0  0  0  0  0  0  0  0  0  0  0  0
   10.1657   -3.8894   17.0916 C   0  0  0  0  0  0  0  0  0  0  0  0
   10.3697   -3.6885   15.8660 C   0  0  0  0  0  0  0  0  0  0  0  0
   11.0786   -3.0055   19.4846 C   0  0  0  0  0  0  0  0  0  0  0  0
    6.5250   -7.5796   16.9202 C   0  0  0  0  0  0  0  0  0  0  0  0
    8.8016   -0.8890   26.8295 C   0  0  0  0  0  0  0  0  0  0  0  0
    9.7022   -5.9586   18.2511 C   0  0  0  0  0  0  0  0  0  0  0  0
   11.5306   -2.2941   20.0618 O   0  0  0  0  0  0  0  0  0  0  0  0
    5.1307   -9.4274   15.2412 C   0  0  0  0  0  0  0  0  0  0  0  0
    6.9879   -9.8355   14.7079 B   0  0  0  0  0  0  0  0  0  0  0  0
    8.7918   -6.2287   16.0936 C   0  0  0  0  0  0  0  0  0  0  0  0
    1.2541  -12.6120   20.3635 C   0  0  0  0  0  0  0  0  0  0  0  0
    8.9543    0.5478   24.7123 C   0  0  0  0  0  0  0  0  0  0  0  0
    0.1501  -11.5386   18.2353 N   0  0  0  0  0  0  0  0  0  0  0  0
    9.5440   -5.3083   17.2715 C   0  0  0  0  0  0  0  0  0  0  0  0
    3.5892   -9.7332   17.5700 C   0  0  0  0  0  0  0  0  0  0  0  0
    0.1924  -12.6594   19.7695 C   0  0  0  0  0  0  0  0  0  0  0  0
    2.1314   -9.7118   16.8806 C   0  0  0  0  0  0  0  0  0  0  0  0
    9.2580   -7.5918   18.1702 C   0  0  0  0  0  0  0  0  0  0  0  0
    1.1092  -11.0602   17.6426 C   0  0  0  0  0  0  0  0  0  0  0  0
    7.7729   -7.3832   16.7250 N   0  0  0  0  0  0  0  0  0  0  0  0
    5.0000   -8.9372   19.0936 He  0  0  0  0  0  0  0  0  0  0  0  0
    3.5774  -10.2467   18.4028 He  0  0  0  0  0  0  0  0  0  0  0  0
    5.2418   -9.1038   17.3959 He  0  0  0  0  0  0  0  0  0  0  0  0
    8.0162   -6.5100   16.0532 He  0  0  0  0  0  0  0  0  0  0  0  0
    1.3999  -10.0792   17.0566 He  0  0  0  0  0  0  0  0  0  0  0  0
    5.4648   -8.7666   17.5891 He  0  0  0  0  0  0  0  0  0  0  0  0
  1  2  1  0
  1 13  1  0
  1 20  1  0
  2  3  1  0
  2 19  4  0
  2 24  1  0
  3  8  4  0
  3 14  4  0
  3 18  2  0
  3 26  4  0
  4  7  4  0
  4  8  2  0
  4 27  4  0
  5  9  4  0
  5 11  4  0
  5 18  4  0
  5 21  1  0
  6 17  1  0
  6 25  1  0
  6 28  1  0
  7 10  4  0
  7 16  2  0
  7 19  4  0
  7 28  4  0
  9 10  1  0
  9 14  2  0
  9 22  4  0
  9 28  3  0
 10 18  4  0
 11 14  2  0
 11 15  1  0
 11 22  4  0
 12 15  4  0
 12 18  4  0
 12 28  1  0
 13 14  3  0
 13 20  1  0
 14 15  3  0
 14 21  4  0
 14 22  4  0
 14 26  1  0
 15 18  1  0
 17 22  1  0
 17 24  1  0
 18 22  1  0
 18 25  2  0
 18 26  4  0
 19 23  2  0
 19 24  4  0
 20 22  3  0
 21 24  4  0
 21 27  4  0
 21 28  4  0
 22 27  2  0
 23 25  4  0
 23 26  4  0
M  END
$$$$

 Created by Python create_sdf_string function

 34 36  0  0  0  0  0  0  0  0999 V2000
    9.0511   -0.6151   25.2989 N   0  0  0  0  0  0  0  0  0  0  0  0
    9.6154   -1.6518   24.4278 C   0  0  0  0  0  0  0  0  0  0  0  0
   10.0683   -5.6975   19.4672 C   0  0  0  0  0  0  0  0  0  0  0  0
    2.3665  -11.2013   18.7918 C   0  0  0  0  0  0  0  0  0  0  0  0
   10.8017   -3.1783   17.9082 C   0  0  0  0  0  0  0  0  0  0  0  0
    7.7017   -8.6157   15.3572 C   0  0  0  0  0  0  0  0  0  0  0  0
    2.3509  -12.0308   19.9368 C   0  0  0  0  0  0  0  0  0  0  0  0
    5.6218   -8.8181   18.9633 O   0  0  0  0  0  0  0  0  0  0  0  0
   10.5599   -4.4974   19.8852 C   0  0  0  0  0  0  0  0  0  0  0  0
    3.5751  -10.5930   18.3827 N   0  0  0  0  0  0  0  0  0  0  0  0
   10.2639   -4.0480   17.0753 C   0  0  0  0  0  0  0  0  0  0  0  0
    4.8430   -9.3153   16.8166 N   0  0  0  0  0  0  0  0  0  0  0  0
   10.3142   -3.5834   15.6273 C   0  0  0  0  0  0  0  0  0  0  0  0
   10.9340   -3.3484   19.2362 C   0  0  0  0  0  0  0  0  0  0  0  0
    7.9914   -6.4187   15.9955 C   0  0  0  0  0  0  0  0  0  0  0  0
    6.3694   -7.5306   17.0754 C   0  0  0  0  0  0  0  0  0  0  0  0
    1.2636  -10.1524   17.0252 C   0  0  0  0  0  0  0  0  0  0  0  0
    8.7791   -0.8901   26.6593 C   0  0  0  0  0  0  0  0  0  0  0  0
    9.6654   -6.0328   18.3180 C   0  0  0  0  0  0  0  0  0  0  0  0
   11.4435   -2.3733   19.9168 O   0  0  0  0  0  0  0  0  0  0  0  0
    5.2791   -9.5043   15.4613 C   0  0  0  0  0  0  0  0  0  0  0  0
    6.5783   -9.6185   15.1486 C   0  0  0  0  0  0  0  0  0  0  0  0
    8.9561   -5.7759   16.0536 C   0  0  0  0  0  0  0  0  0  0  0  0
    1.2050  -12.7017   20.2744 C   0  0  0  0  0  0  0  0  0  0  0  0
    8.8999    0.6911   24.7363 C   0  0  0  0  0  0  0  0  0  0  0  0
    5.6757   -8.6380   17.7406 C   0  0  0  0  0  0  0  0  0  0  0  0
    0.0877  -11.7286   18.4740 N   0  0  0  0  0  0  0  0  0  0  0  0
    9.6607   -5.2368   17.2186 C   0  0  0  0  0  0  0  0  0  0  0  0
    3.6204   -9.8259   17.3420 C   0  0  0  0  0  0  0  0  0  0  0  0
    0.0879  -12.5287   19.5366 C   0  0  0  0  0  0  0  0  0  0  0  0
    2.4590   -9.5547   16.6737 C   0  0  0  0  0  0  0  0  0  0  0  0
    9.2875   -7.4211   18.2964 C   0  0  0  0  0  0  0  0  0  0  0  0
    1.2060  -11.0272   18.0997 C   0  0  0  0  0  0  0  0  0  0  0  0
    7.4379   -7.6249   16.2698 N   0  0  0  0  0  0  0  0  0  0  0  0
  1  2  1  0
  1 18  1  0
  1 25  1  0
  3  9  4  0
  3 19  4  0
  4  7  4  0
  4 10  4  0
  4 33  4  0
  5 11  4  0
  5 14  4  0
  6 22  1  0
  6 34  1  0
  7 24  4  0
  8 26  2  0
  9 14  4  0
 10 29  4  0
 11 13  1  0
 11 28  4  0
 12 21  1  0
 12 26  1  0
 12 29  1  0
 14 20  1  0
 15 23  1  0
 15 34  1  0
 16 26  1  0
 16 34  1  0
 17 31  4  0
 17 33  4  0
 19 28  4  0
 19 32  1  0
 21 22  1  0
 23 28  1  0
 24 30  4  0
 27 30  4  0
 27 33  4  0
 29 31  4  0
M  END
$$$$

 Created by Python create_sdf_string function

 34 72  0  0  0  0  0  0  0  0999 V2000
    9.4457   -0.4639   25.3587 N   0  0  0  0  0  0  0  0  0  0  0  0
    9.2871   -1.4752   24.4690 C   0  0  0  0  0  0  0  0  0  0  0  0
    9.9032   -5.7156   19.6534 C   0  0  0  0  0  0  0  0  0  0  0  0
    2.4245  -10.9872   18.7911 C   0  0  0  0  0  0  0  0  0  0  0  0
   10.9231   -3.2542   17.7500 N   0  0  0  0  0  0  0  0  0  0  0  0
    7.9789   -8.8177   15.2106 C   0  0  0  0  0  0  0  0  0  0  0  0
    2.4651  -12.1254   19.7341 C   0  0  0  0  0  0  0  0  0  0  0  0
    5.5508   -8.7835   18.7793 O   0  0  0  0  0  0  0  0  0  0  0  0
   10.3398   -4.2964   20.2573 C   0  0  0  0  0  0  0  0  0  0  0  0
    3.4794  -10.3616   18.0960 N   0  0  0  0  0  0  0  0  0  0  0  0
   10.0877   -4.0403   16.9245 C   0  0  0  0  0  0  0  0  0  0  0  0
    5.0619   -9.4782   16.9847 N   0  0  0  0  0  0  0  0  0  0  0  0
   10.1727   -3.6171   15.6902 C   0  0  0  0  0  0  0  0  0  0  0  0
   11.0439   -3.3448   19.5893 C   0  0  0  0  0  0  0  0  0  0  0  0
    8.0768   -6.4669   15.8887 C   0  0  0  0  0  0  0  0  0  0  0  0
    6.1307   -7.6580   17.0279 C   0  0  0  0  0  0  0  0  0  0  0  0
    1.4505  -10.1957   16.7051 C   0  0  0  0  0  0  0  0  0  0  0  0
    8.6906   -0.8467   26.9817 C   0  0  0  0  0  0  0  0  0  0  0  0
    9.7245   -5.8582   18.5054 C   0  0  0  0  0  0  0  0  0  0  0  0
   11.2957   -2.0640   19.9254 O   0  0  0  0  0  0  0  0  0  0  0  0
    5.4850   -9.5084   15.4724 C   0  0  0  0  0  0  0  0  0  0  0  0
    6.5774   -8.9753   15.6876 C   0  0  0  0  0  0  0  0  0  0  0  0
    8.8304   -5.2731   15.8161 C   0  0  0  0  0  0  0  0  0  0  0  0
    1.2170  -12.7147   20.5889 C   0  0  0  0  0  0  0  0  0  0  0  0
    8.9830    1.0943   24.7633 C   0  0  0  0  0  0  0  0  0  0  0  0
    5.8050   -8.7630   17.2509 F   0  0  0  0  0  0  0  0  0  0  0  0
   -0.1516  -12.1201   18.7973 N   0  0  0  0  0  0  0  0  0  0  0  0
    9.8627   -5.2234   17.0928 C   0  0  0  0  0  0  0  0  0  0  0  0
    3.6288   -9.8576   17.2647 C   0  0  0  0  0  0  0  0  0  0  0  0
    0.1986  -12.2452   19.2488 C   0  0  0  0  0  0  0  0  0  0  0  0
    2.5049   -9.4894   16.8070 C   0  0  0  0  0  0  0  0  0  0  0  0
    9.1961   -7.4091   18.4269 C   0  0  0  0  0  0  0  0  0  0  0  0
    1.0987  -10.7965   18.4062 C   0  0  0  0  0  0  0  0  0  0  0  0
    7.5004   -7.7491   16.3766 N   0  0  0  0  0  0  0  0  0  0  0  0
  1  2  1  0
  1 23  1  0
  1 25  1  0
  1 28  1  0
  1 30  1  0
  2  3  1  0
  2  8  2  0
  2 20  2  0
  2 22  1  0
  2 26  1  0
  3  9  4  0
  3 11  1  0
  3 19  4  0
  3 24  2  0
  4  7  4  0
  4  8  4  0
  4 10  4  0
  4 33  4  0
  5 11  4  0
  5 14  4  0
  5 17  4  0
  5 33  4  0
  6 27  1  0
  6 33  3  0
  6 34  3  0
  7 18  4  0
  7 24  4  0
  7 29  3  0
  8 10  3  0
  8 12  4  0
  8 21  3  0
  8 26  2  0
  8 32  4  0
  9 10  2  0
  9 14  3  0
  9 32  2  0
 10 29  4  0
 11 13  1  0
 11 28  4  0
 12 19  1  0
 12 21  1  0
 12 26  2  0
 12 29  1  0
 13 17  1  0
 14 20  1  0
 15 23  1  0
 15 34  3  0
 16 25  1  0
 16 34  1  0
 17 31  4  0
 17 33  4  0
 18 22  4  0
 19 25  4  0
 19 28  4  0
 19 32  1  0
 21 22  1  0
 22 25  4  0
 22 27  3  0
 22 30  3  0
 23 25  2  0
 23 28  1  0
 24 30  4  0
 24 34  3  0
 26 30  2  0
 26 31  1  0
 27 29  1  0
 27 30  4  0
 27 33  4  0
 28 33  2  0
 29 31  4  0
 29 34  4  0
 33 34  4  0
M  END
$$$$

 Created by Python create_sdf_string function

 34 36  0  0  0  0  0  0  0  0999 V2000
    9.2936   -0.3945   25.4301 N   0  0  0  0  0  0  0  0  0  0  0  0
    9.4976   -1.4829   24.4520 C   0  0  0  0  0  0  0  0  0  0  0  0
   10.0180   -5.6031   19.6272 C   0  0  0  0  0  0  0  0  0  0  0  0
    2.4102  -11.1921   18.7876 C   0  0  0  0  0  0  0  0  0  0  0  0
   10.8244   -3.1767   17.9937 C   0  0  0  0  0  0  0  0  0  0  0  0
    7.7672   -8.6884   15.2997 C   0  0  0  0  0  0  0  0  0  0  0  0
    2.3800  -12.0200   19.9688 C   0  0  0  0  0  0  0  0  0  0  0  0
    5.7289   -8.7410   18.9186 O   0  0  0  0  0  0  0  0  0  0  0  0
   10.4794   -4.3953   20.0122 C   0  0  0  0  0  0  0  0  0  0  0  0
    3.5632  -10.5762   18.3847 N   0  0  0  0  0  0  0  0  0  0  0  0
   10.2498   -4.0297   17.1229 C   0  0  0  0  0  0  0  0  0  0  0  0
    4.8459   -9.3447   16.8489 N   0  0  0  0  0  0  0  0  0  0  0  0
   10.3264   -3.5746   15.6941 C   0  0  0  0  0  0  0  0  0  0  0  0
   10.8584   -3.3012   19.2995 C   0  0  0  0  0  0  0  0  0  0  0  0
    8.0814   -6.4404   15.7927 C   0  0  0  0  0  0  0  0  0  0  0  0
    6.3449   -7.4938   17.0282 C   0  0  0  0  0  0  0  0  0  0  0  0
    1.2474  -10.1217   17.0473 C   0  0  0  0  0  0  0  0  0  0  0  0
    8.7502   -0.7565   26.6968 C   0  0  0  0  0  0  0  0  0  0  0  0
    9.6043   -5.9663   18.3781 C   0  0  0  0  0  0  0  0  0  0  0  0
   11.3635   -2.2647   19.9657 O   0  0  0  0  0  0  0  0  0  0  0  0
    5.4038   -9.5642   15.5579 C   0  0  0  0  0  0  0  0  0  0  0  0
    6.6124   -9.5203   15.2659 C   0  0  0  0  0  0  0  0  0  0  0  0
    8.8251   -5.5764   16.0772 C   0  0  0  0  0  0  0  0  0  0  0  0
    1.2326  -12.6749   20.3196 C   0  0  0  0  0  0  0  0  0  0  0  0
    8.9741    0.9075   24.8595 C   0  0  0  0  0  0  0  0  0  0  0  0
    5.6460   -8.5780   17.7005 C   0  0  0  0  0  0  0  0  0  0  0  0
    0.0546  -11.6700   18.5659 N   0  0  0  0  0  0  0  0  0  0  0  0
    9.5651   -5.1517   17.2744 C   0  0  0  0  0  0  0  0  0  0  0  0
    3.6347   -9.8658   17.3118 C   0  0  0  0  0  0  0  0  0  0  0  0
    0.0876  -12.4779   19.6152 C   0  0  0  0  0  0  0  0  0  0  0  0
    2.4538   -9.6284   16.6263 C   0  0  0  0  0  0  0  0  0  0  0  0
    9.2410   -7.3583   18.2964 C   0  0  0  0  0  0  0  0  0  0  0  0
    1.2136  -11.0142   18.1189 C   0  0  0  0  0  0  0  0  0  0  0  0
    7.3988   -7.5801   16.1522 N   0  0  0  0  0  0  0  0  0  0  0  0
  1  2  1  0
  1 18  1  0
  1 25  1  0
  3  9  4  0
  3 19  4  0
  4  7  4  0
  4 10  4  0
  4 33  4  0
  5 11  4  0
  5 14  4  0
  6 22  1  0
  6 34  1  0
  7 24  4  0
  8 26  2  0
  9 14  4  0
 10 29  4  0
 11 13  1  0
 11 28  4  0
 12 21  1  0
 12 26  1  0
 12 29  1  0
 14 20  1  0
 15 23  1  0
 15 34  1  0
 16 26  1  0
 16 34  1  0
 17 31  4  0
 17 33  4  0
 19 28  4  0
 19 32  1  0
 21 22  1  0
 23 28  1  0
 24 30  4  0
 27 30  4  0
 27 33  4  0
 29 31  4  0
M  END
$$$$

 Created by Python create_sdf_string function

 34 59  0  0  0  0  0  0  0  0999 V2000
    9.8782   -0.2157   25.6521 N   0  0  0  0  0  0  0  0  0  0  0  0
    9.5249   -1.6179   24.5536 C   0  0  0  0  0  0  0  0  0  0  0  0
   10.1831   -5.7605   19.6101 C   0  0  0  0  0  0  0  0  0  0  0  0
    2.4656  -11.2402   18.6681 C   0  0  0  0  0  0  0  0  0  0  0  0
   10.6094   -3.2797   18.0465 C   0  0  0  0  0  0  0  0  0  0  0  0
    7.4881   -8.7101   15.5819 C   0  0  0  0  0  0  0  0  0  0  0  0
    2.2753  -11.6874   19.9900 F   0  0  0  0  0  0  0  0  0  0  0  0
    5.4414   -8.5369   19.3781 O   0  0  0  0  0  0  0  0  0  0  0  0
   10.6011   -4.4756   20.2594 C   0  0  0  0  0  0  0  0  0  0  0  0
   10.1848   -4.0490   17.2693 C   0  0  0  0  0  0  0  0  0  0  0  0
    4.8016   -9.3056   16.4174 N   0  0  0  0  0  0  0  0  0  0  0  0
   10.4206   -3.6002   15.6512 C   0  0  0  0  0  0  0  0  0  0  0  0
   10.7352   -3.3790   19.3275 C   0  0  0  0  0  0  0  0  0  0  0  0
    8.0531   -6.5504   15.9528 C   0  0  0  0  0  0  0  0  0  0  0  0
    6.4678   -7.4317   16.8072 C   0  0  0  0  0  0  0  0  0  0  0  0
    1.3067   -9.8348   17.3148 C   0  0  0  0  0  0  0  0  0  0  0  0
    8.7224   -1.0402   26.7672 C   0  0  0  0  0  0  0  0  0  0  0  0
    9.7168   -6.1896   18.3663 C   0  0  0  0  0  0  0  0  0  0  0  0
   11.4245   -2.0928   19.9988 O   0  0  0  0  0  0  0  0  0  0  0  0
    5.5045   -9.2763   15.8708 C   0  0  0  0  0  0  0  0  0  0  0  0
    6.2703  -10.0973   15.3203 B   0  0  0  0  0  0  0  0  0  0  0  0
    8.5142   -4.7729   15.5899 C   0  0  0  0  0  0  0  0  0  0  0  0
    1.2658  -12.7212   20.2463 C   0  0  0  0  0  0  0  0  0  0  0  0
    8.9868    1.1868   25.0082 C   0  0  0  0  0  0  0  0  0  0  0  0
    5.4915   -8.7292   17.8014 C   0  0  0  0  0  0  0  0  0  0  0  0
   -0.1127  -11.5940   18.4674 C   0  0  0  0  0  0  0  0  0  0  0  0
    9.6568   -4.9535   17.2423 C   0  0  0  0  0  0  0  0  0  0  0  0
    3.8776   -9.9145   17.0846 C   0  0  0  0  0  0  0  0  0  0  0  0
    0.1682  -12.4247   19.4652 C   0  0  0  0  0  0  0  0  0  0  0  0
    2.3861   -9.6253   16.5421 C   0  0  0  0  0  0  0  0  0  0  0  0
    9.3882   -6.9674   18.4313 C   0  0  0  0  0  0  0  0  0  0  0  0
    1.3739  -10.7919   18.0891 C   0  0  0  0  0  0  0  0  0  0  0  0
    3.5956  -10.4304   18.1489 He  0  0  0  0  0  0  0  0  0  0  0  0
    7.2449   -7.3761   15.9758 He  0  0  0  0  0  0  0  0  0  0  0  0
  1  2  1  0
  1 17  1  0
  1 24  1  0
  3  9  4  0
  3 13  1  0
  3 18  4  0
  4  7  4  0
  4  8  1  0
  4 32  4  0
  5 10  4  0
  5 13  4  0
  5 21  1  0
  5 24  4  0
  6  7  2  0
  6 21  1  0
  6 25  1  0
  6 31  1  0
  7 21  2  0
  7 23  4  0
  7 24  4  0
  8 13  4  0
  8 16  3  0
  8 21  4  0
  8 25  2  0
  9 13  4  0
 10 12  1  0
 10 25  2  0
 10 27  4  0
 11 16  2  0
 11 19  4  0
 11 20  1  0
 11 25  3  0
 11 32  4  0
 13 17  1  0
 13 19  1  0
 13 20  4  0
 13 23  3  0
 13 26  2  0
 13 27  1  0
 14 22  1  0
 15 23  4  0
 15 25  2  0
 15 29  1  0
 15 30  2  0
 16 28  4  0
 16 30  4  0
 16 32  4  0
 17 26  3  0
 18 31  1  0
 20 21  1  0
 20 23  1  0
 20 29  4  0
 22 27  1  0
 22 31  1  0
 25 29  3  0
 26 29  4  0
 26 32  4  0
 27 30  4  0
 28 30  4  0
M  END
$$$$

 Created by Python create_sdf_string function

 34 36  0  0  0  0  0  0  0  0999 V2000
    9.5253   -0.3828   25.5646 N   0  0  0  0  0  0  0  0  0  0  0  0
    9.6585   -1.4260   24.4669 C   0  0  0  0  0  0  0  0  0  0  0  0
   10.1357   -5.6650   19.5747 C   0  0  0  0  0  0  0  0  0  0  0  0
    2.4219  -11.1167   18.7889 C   0  0  0  0  0  0  0  0  0  0  0  0
   10.7593   -3.1611   18.0534 C   0  0  0  0  0  0  0  0  0  0  0  0
    7.5692   -8.7478   15.4075 C   0  0  0  0  0  0  0  0  0  0  0  0
    2.3855  -11.9874   19.8703 C   0  0  0  0  0  0  0  0  0  0  0  0
    5.5975   -8.5927   18.9796 O   0  0  0  0  0  0  0  0  0  0  0  0
   10.6162   -4.4902   20.0629 C   0  0  0  0  0  0  0  0  0  0  0  0
    3.5908  -10.5182   18.3526 C   0  0  0  0  0  0  0  0  0  0  0  0
   10.2213   -3.9665   17.1175 C   0  0  0  0  0  0  0  0  0  0  0  0
    4.8087   -9.2261   16.8022 N   0  0  0  0  0  0  0  0  0  0  0  0
   10.3584   -3.5707   15.7142 C   0  0  0  0  0  0  0  0  0  0  0  0
   10.8831   -3.3276   19.3774 C   0  0  0  0  0  0  0  0  0  0  0  0
    8.2174   -6.5047   15.6629 C   0  0  0  0  0  0  0  0  0  0  0  0
    6.3999   -7.4013   17.0836 C   0  0  0  0  0  0  0  0  0  0  0  0
    1.2653  -10.0267   17.0213 C   0  0  0  0  0  0  0  0  0  0  0  0
    8.7822   -0.8763   26.7541 C   0  0  0  0  0  0  0  0  0  0  0  0
    9.6575   -5.9215   18.3342 C   0  0  0  0  0  0  0  0  0  0  0  0
   11.3158   -2.3290   20.0699 O   0  0  0  0  0  0  0  0  0  0  0  0
    5.2298   -9.4129   15.4616 C   0  0  0  0  0  0  0  0  0  0  0  0
    6.6017   -9.7417   15.3067 C   0  0  0  0  0  0  0  0  0  0  0  0
    8.5609   -5.3459   16.1596 C   0  0  0  0  0  0  0  0  0  0  0  0
    1.2197  -12.6014   20.2646 C   0  0  0  0  0  0  0  0  0  0  0  0
    9.0495    0.9311   25.0422 C   0  0  0  0  0  0  0  0  0  0  0  0
    5.6149   -8.4596   17.6953 C   0  0  0  0  0  0  0  0  0  0  0  0
    0.0584  -11.5473   18.5249 C   0  0  0  0  0  0  0  0  0  0  0  0
    9.5013   -5.0965   17.2324 C   0  0  0  0  0  0  0  0  0  0  0  0
    3.6401   -9.7486   17.3059 C   0  0  0  0  0  0  0  0  0  0  0  0
    0.0969  -12.3999   19.5468 C   0  0  0  0  0  0  0  0  0  0  0  0
    2.4483   -9.4769   16.6503 C   0  0  0  0  0  0  0  0  0  0  0  0
    9.2772   -7.2744   18.2533 C   0  0  0  0  0  0  0  0  0  0  0  0
    1.2365  -10.8730   18.1132 C   0  0  0  0  0  0  0  0  0  0  0  0
    7.2626   -7.4765   16.0388 C   0  0  0  0  0  0  0  0  0  0  0  0
  1  2  1  0
  1 18  1  0
  1 25  1  0
  3  9  4  0
  3 19  4  0
  4  7  4  0
  4 10  4  0
  4 33  4  0
  5 11  4  0
  5 14  4  0
  6 22  1  0
  6 34  1  0
  7 24  4  0
  8 26  2  0
  9 14  4  0
 10 29  4  0
 11 13  1  0
 11 28  4  0
 12 21  1  0
 12 26  1  0
 12 29  1  0
 14 20  1  0
 15 23  1  0
 15 34  1  0
 16 26  1  0
 16 34  1  0
 17 31  4  0
 17 33  4  0
 19 28  4  0
 19 32  1  0
 21 22  1  0
 23 28  1  0
 24 30  4  0
 27 30  4  0
 27 33  4  0
 29 31  4  0
M  END
$$$$

 Created by Python create_sdf_string function

 34 67  0  0  0  0  0  0  0  0999 V2000
    9.4781   -0.3725   26.0229 N   0  0  0  0  0  0  0  0  0  0  0  0
    9.7803   -1.5657   24.6883 C   0  0  0  0  0  0  0  0  0  0  0  0
   10.1873   -5.4607   19.5544 C   0  0  0  0  0  0  0  0  0  0  0  0
    2.4088  -11.3317   18.5310 C   0  0  0  0  0  0  0  0  0  0  0  0
   10.8312   -3.0149   18.1239 C   0  0  0  0  0  0  0  0  0  0  0  0
    7.4593   -8.8585   15.5173 C   0  0  0  0  0  0  0  0  0  0  0  0
    2.4909  -11.8670   19.7249 C   0  0  0  0  0  0  0  0  0  0  0  0
   10.4819   -4.5087   19.9917 C   0  0  0  0  0  0  0  0  0  0  0  0
    3.7324  -10.3908   18.4172 C   0  0  0  0  0  0  0  0  0  0  0  0
   10.2470   -3.9352   17.1921 O   0  0  0  0  0  0  0  0  0  0  0  0
    4.3985   -9.3459   16.5107 N   0  0  0  0  0  0  0  0  0  0  0  0
   10.5191   -3.6691   15.6954 C   0  0  0  0  0  0  0  0  0  0  0  0
   10.4370   -3.0420   19.4642 C   0  0  0  0  0  0  0  0  0  0  0  0
    8.0360   -6.5837   15.6183 C   0  0  0  0  0  0  0  0  0  0  0  0
    6.5084   -7.6385   16.9634 C   0  0  0  0  0  0  0  0  0  0  0  0
    1.2956   -9.9136   16.7825 C   0  0  0  0  0  0  0  0  0  0  0  0
    9.0473   -0.6859   26.8644 C   0  0  0  0  0  0  0  0  0  0  0  0
    9.7028   -5.9118   18.4530 C   0  0  0  0  0  0  0  0  0  0  0  0
   11.2863   -2.4984   19.8324 O   0  0  0  0  0  0  0  0  0  0  0  0
    5.1570   -9.3153   15.4660 C   0  0  0  0  0  0  0  0  0  0  0  0
    6.9552   -9.5781   15.1194 C   0  0  0  0  0  0  0  0  0  0  0  0
    8.5589   -5.4336   16.2334 C   0  0  0  0  0  0  0  0  0  0  0  0
    1.2411  -12.7124   20.2057 C   0  0  0  0  0  0  0  0  0  0  0  0
    9.0586    1.0489   24.8181 C   0  0  0  0  0  0  0  0  0  0  0  0
    5.9274   -8.4992   18.2541 C   0  0  0  0  0  0  0  0  0  0  0  0
    0.2476  -11.4495   18.7974 C   0  0  0  0  0  0  0  0  0  0  0  0
    9.2439   -4.9179   17.2495 C   0  0  0  0  0  0  0  0  0  0  0  0
    3.4836   -9.7412   17.3807 C   0  0  0  0  0  0  0  0  0  0  0  0
    0.2631  -12.2407   19.6239 C   0  0  0  0  0  0  0  0  0  0  0  0
    2.4928   -9.5319   16.8641 C   0  0  0  0  0  0  0  0  0  0  0  0
    9.0172   -7.2611   17.9974 C   0  0  0  0  0  0  0  0  0  0  0  0
    1.1291  -10.8616   18.2602 C   0  0  0  0  0  0  0  0  0  0  0  0
    6.6331   -7.3227   15.6871 C   0  0  0  0  0  0  0  0  0  0  0  0
    5.9637   -8.8050   19.2282 He  0  0  0  0  0  0  0  0  0  0  0  0
  1  2  1  0
  1  8  4  0
  1 17  1  0
  1 24  1  0
  2 21  4  0
  3  8  4  0
  3  9  3  0
  3 18  4  0
  4  7  4  0
  4  9  4  0
  4 11  1  0
  4 29  4  0
  4 32  4  0
  5 10  4  0
  5 11  2  0
  5 12  2  0
  5 13  4  0
  5 21  1  0
  5 33  1  0
  6 10  2  0
  6 21  1  0
  6 22  3  0
  6 29  4  0
  6 33  1  0
  7  9  2  0
  7 21  3  0
  7 22  2  0
  7 23  4  0
  7 27  3  0
  8 10  2  0
  8 13  4  0
  8 15  4  0
  8 31  3  0
  9 17  4  0
  9 24  2  0
 10 22  2  0
 10 27  4  0
 10 28  2  0
 11 20  1  0
 11 25  1  0
 11 28  1  0
 12 30  4  0
 12 33  2  0
 13 19  1  0
 14 18  3  0
 14 25  3  0
 14 33  1  0
 15 25  1  0
 15 29  1  0
 15 33  1  0
 16 19  3  0
 16 30  4  0
 16 32  3  0
 17 21  2  0
 17 29  2  0
 18 22  4  0
 18 27  4  0
 18 30  1  0
 18 31  1  0
 20 21  1  0
 21 22  1  0
 21 24  3  0
 21 31  3  0
 26 29  4  0
 28 30  4  0
 29 31  2  0
 29 33  2  0
M  END
$$$$

 Created by Python create_sdf_string function

 34 36  0  0  0  0  0  0  0  0999 V2000
    9.4531   -0.3239   25.6058 N   0  0  0  0  0  0  0  0  0  0  0  0
    9.7331   -1.4701   24.6870 C   0  0  0  0  0  0  0  0  0  0  0  0
    9.9981   -5.6086   19.6122 C   0  0  0  0  0  0  0  0  0  0  0  0
    2.4716  -11.1377   18.7747 C   0  0  0  0  0  0  0  0  0  0  0  0
   10.6268   -3.1739   17.9982 C   0  0  0  0  0  0  0  0  0  0  0  0
    7.5353   -8.7115   15.3834 C   0  0  0  0  0  0  0  0  0  0  0  0
    2.4677  -12.0799   19.8080 C   0  0  0  0  0  0  0  0  0  0  0  0
    5.8598   -8.7905   18.9939 O   0  0  0  0  0  0  0  0  0  0  0  0
   10.4892   -4.5046   20.0040 C   0  0  0  0  0  0  0  0  0  0  0  0
    3.6215  -10.5065   18.3715 C   0  0  0  0  0  0  0  0  0  0  0  0
   10.1411   -3.9829   17.0809 C   0  0  0  0  0  0  0  0  0  0  0  0
    4.8388   -9.2004   16.8348 N   0  0  0  0  0  0  0  0  0  0  0  0
   10.3359   -3.6032   15.6797 C   0  0  0  0  0  0  0  0  0  0  0  0
   10.7920   -3.3529   19.3442 C   0  0  0  0  0  0  0  0  0  0  0  0
    7.9958   -6.4375   15.6797 C   0  0  0  0  0  0  0  0  0  0  0  0
    6.3064   -7.3332   17.1053 C   0  0  0  0  0  0  0  0  0  0  0  0
    1.2828   -9.9781   17.0895 C   0  0  0  0  0  0  0  0  0  0  0  0
    8.9924   -0.6119   26.9043 C   0  0  0  0  0  0  0  0  0  0  0  0
    9.5297   -5.9269   18.3141 C   0  0  0  0  0  0  0  0  0  0  0  0
   11.2728   -2.3450   20.0453 O   0  0  0  0  0  0  0  0  0  0  0  0
    5.1881   -9.3483   15.4607 C   0  0  0  0  0  0  0  0  0  0  0  0
    6.5617   -9.7529   15.2117 C   0  0  0  0  0  0  0  0  0  0  0  0
    8.4654   -5.4444   16.2045 C   0  0  0  0  0  0  0  0  0  0  0  0
    1.2718  -12.6351   20.2608 C   0  0  0  0  0  0  0  0  0  0  0  0
    9.0395    0.8876   24.9146 C   0  0  0  0  0  0  0  0  0  0  0  0
    5.7483   -8.5191   17.7671 C   0  0  0  0  0  0  0  0  0  0  0  0
    0.1014  -11.4660   18.6358 C   0  0  0  0  0  0  0  0  0  0  0  0
    9.4603   -5.1012   17.2599 C   0  0  0  0  0  0  0  0  0  0  0  0
    3.6567   -9.7181   17.3266 C   0  0  0  0  0  0  0  0  0  0  0  0
    0.1256  -12.2991   19.6718 C   0  0  0  0  0  0  0  0  0  0  0  0
    2.4760   -9.4542   16.6810 C   0  0  0  0  0  0  0  0  0  0  0  0
    9.1180   -7.2721   18.1998 C   0  0  0  0  0  0  0  0  0  0  0  0
    1.2653  -10.8621   18.1567 C   0  0  0  0  0  0  0  0  0  0  0  0
    6.8893   -7.3812   15.7449 C   0  0  0  0  0  0  0  0  0  0  0  0
  1  2  1  0
  1 18  1  0
  1 25  1  0
  3  9  4  0
  3 19  4  0
  4  7  4  0
  4 10  4  0
  4 33  4  0
  5 11  4  0
  5 14  4  0
  6 22  1  0
  6 34  1  0
  7 24  4  0
  8 26  2  0
  9 14  4  0
 10 29  4  0
 11 13  1  0
 11 28  4  0
 12 21  1  0
 12 26  1  0
 12 29  1  0
 14 20  1  0
 15 23  1  0
 15 34  1  0
 16 26  1  0
 16 34  1  0
 17 31  4  0
 17 33  4  0
 19 28  4  0
 19 32  1  0
 21 22  1  0
 23 28  1  0
 24 30  4  0
 27 30  4  0
 27 33  4  0
 29 31  4  0
M  END
$$$$

 Created by Python create_sdf_string function

 34 59  0  0  0  0  0  0  0  0999 V2000
    9.6039   -0.1429   25.5304 N   0  0  0  0  0  0  0  0  0  0  0  0
    9.6797   -1.3432   24.6406 C   0  0  0  0  0  0  0  0  0  0  0  0
   10.0103   -5.5794   19.2922 C   0  0  0  0  0  0  0  0  0  0  0  0
    2.5631  -10.8899   19.1147 C   0  0  0  0  0  0  0  0  0  0  0  0
   10.8297   -3.4245   17.8590 C   0  0  0  0  0  0  0  0  0  0  0  0
    7.4535   -8.7498   15.4256 C   0  0  0  0  0  0  0  0  0  0  0  0
    2.6595  -12.2004   19.7939 C   0  0  0  0  0  0  0  0  0  0  0  0
    4.8019   -9.2020   18.6636 O   0  0  0  0  0  0  0  0  0  0  0  0
   10.3441   -4.6689   20.0979 C   0  0  0  0  0  0  0  0  0  0  0  0
    3.6750  -10.4411   18.1862 C   0  0  0  0  0  0  0  0  0  0  0  0
    9.9416   -3.7286   17.1075 C   0  0  0  0  0  0  0  0  0  0  0  0
    5.0509   -9.0682   16.8320 Cl  0  0  0  0  0  0  0  0  0  0  0  0
   10.5102   -3.3603   15.6024 C   0  0  0  0  0  0  0  0  0  0  0  0
   10.8401   -3.6536   19.3607 C   0  0  0  0  0  0  0  0  0  0  0  0
    8.1259   -6.5885   15.6047 N   0  0  0  0  0  0  0  0  0  0  0  0
    6.1406   -7.5750   17.0340 C   0  0  0  0  0  0  0  0  0  0  0  0
    1.5377  -10.1059   17.0568 C   0  0  0  0  0  0  0  0  0  0  0  0
    8.8904   -0.5043   26.9433 C   0  0  0  0  0  0  0  0  0  0  0  0
    9.5219   -6.0611   18.0473 C   0  0  0  0  0  0  0  0  0  0  0  0
   11.3929   -2.5268   20.1101 O   0  0  0  0  0  0  0  0  0  0  0  0
    5.2084   -9.2277   15.5078 C   0  0  0  0  0  0  0  0  0  0  0  0
    7.9529   -4.7893   16.5850 C   0  0  0  0  0  0  0  0  0  0  0  0
    5.9209   -8.6222   17.6402 C   0  0  0  0  0  0  0  0  0  0  0  0
    9.1970   -5.2318   17.3728 C   0  0  0  0  0  0  0  0  0  0  0  0
    3.6426   -9.4660   17.4528 P   0  0  0  0  0  0  0  0  0  0  0  0
    2.6426   -9.6039   16.4546 C   0  0  0  0  0  0  0  0  0  0  0  0
    1.5212  -10.9276   18.0984 C   0  0  0  0  0  0  0  0  0  0  0  0
    6.9198   -7.0409   16.1124 C   0  0  0  0  0  0  0  0  0  0  0  0
    6.8818   -9.9372   14.9704 He  0  0  0  0  0  0  0  0  0  0  0  0
    1.1823  -12.7484   20.1432 He  0  0  0  0  0  0  0  0  0  0  0  0
    9.0757    1.0074   24.9934 He  0  0  0  0  0  0  0  0  0  0  0  0
    0.1483  -11.4257   18.9218 He  0  0  0  0  0  0  0  0  0  0  0  0
    0.0001  -12.4254   19.7686 He  0  0  0  0  0  0  0  0  0  0  0  0
    9.0654   -7.4283   18.0741 He  0  0  0  0  0  0  0  0  0  0  0  0
  1  2  1  0
  1 18  1  0
  1 23  1  0
  2  8  2  0
  2 10  1  0
  2 18  2  0
  3  4  1  0
  3  9  4  0
  3 19  4  0
  3 20  3  0
  3 26  4  0
  4  7  4  0
  4 10  4  0
  4 27  4  0
  5  6  4  0
  5  8  1  0
  5 11  4  0
  5 13  4  0
  5 14  4  0
  5 25  3  0
  5 26  1  0
  6 20  1  0
  6 28  2  0
  7 16  1  0
  7 25  4  0
  8 15  4  0
  8 23  2  0
  9 14  4  0
  9 21  1  0
 10 25  4  0
 10 28  1  0
 11 13  1  0
 11 24  4  0
 12 18  4  0
 12 23  1  0
 12 25  1  0
 14 15  2  0
 14 17  2  0
 14 19  3  0
 14 20  1  0
 14 21  1  0
 14 23  1  0
 14 27  1  0
 15 22  3  0
 15 28  1  0
 16 23  4  0
 16 28  1  0
 17 23  4  0
 17 25  2  0
 17 26  4  0
 17 27  4  0
 19 24  4  0
 21 22  2  0
 21 25  4  0
 22 24  1  0
 23 24  2  0
 23 28  3  0
 25 26  4  0
 25 28  2  0
M  END
$$$$

 Created by Python create_sdf_string function

 34 36  0  0  0  0  0  0  0  0999 V2000
    9.4722   -0.1944   25.5301 N   0  0  0  0  0  0  0  0  0  0  0  0
    9.6765   -1.3294   24.5812 C   0  0  0  0  0  0  0  0  0  0  0  0
    9.9345   -5.8521   19.4146 C   0  0  0  0  0  0  0  0  0  0  0  0
    2.5356  -11.1633   18.8165 C   0  0  0  0  0  0  0  0  0  0  0  0
   10.7283   -3.2247   18.0523 C   0  0  0  0  0  0  0  0  0  0  0  0
    7.5470   -8.6232   15.3442 C   0  0  0  0  0  0  0  0  0  0  0  0
    2.5379  -12.1307   19.9048 C   0  0  0  0  0  0  0  0  0  0  0  0
    5.7613   -8.7928   18.9035 O   0  0  0  0  0  0  0  0  0  0  0  0
   10.5081   -4.7636   19.9349 C   0  0  0  0  0  0  0  0  0  0  0  0
    3.6915  -10.5176   18.3757 C   0  0  0  0  0  0  0  0  0  0  0  0
   10.1030   -3.9643   17.0639 C   0  0  0  0  0  0  0  0  0  0  0  0
    4.8787   -9.2411   16.7479 N   0  0  0  0  0  0  0  0  0  0  0  0
   10.2198   -3.4825   15.6490 C   0  0  0  0  0  0  0  0  0  0  0  0
   10.8495   -3.5622   19.3407 C   0  0  0  0  0  0  0  0  0  0  0  0
    8.0308   -6.3883   15.7538 N   0  0  0  0  0  0  0  0  0  0  0  0
    6.3489   -7.3466   17.0992 C   0  0  0  0  0  0  0  0  0  0  0  0
    1.3451  -10.0527   17.0788 C   0  0  0  0  0  0  0  0  0  0  0  0
    8.9266   -0.5085   26.8720 C   0  0  0  0  0  0  0  0  0  0  0  0
    9.4547   -5.9988   18.2201 C   0  0  0  0  0  0  0  0  0  0  0  0
   11.4072   -2.6530   20.1003 O   0  0  0  0  0  0  0  0  0  0  0  0
    5.2509   -9.4004   15.3928 C   0  0  0  0  0  0  0  0  0  0  0  0
    6.6175   -9.6860   15.0794 C   0  0  0  0  0  0  0  0  0  0  0  0
    8.2320   -5.2031   16.2856 C   0  0  0  0  0  0  0  0  0  0  0  0
    1.3640  -12.6853   20.2771 C   0  0  0  0  0  0  0  0  0  0  0  0
    9.0706    1.0371   24.9251 C   0  0  0  0  0  0  0  0  0  0  0  0
    5.7253   -8.5120   17.6860 C   0  0  0  0  0  0  0  0  0  0  0  0
    0.1885  -11.4460   18.6953 N   0  0  0  0  0  0  0  0  0  0  0  0
    9.3243   -5.0430   17.2578 C   0  0  0  0  0  0  0  0  0  0  0  0
    3.7268   -9.7737   17.3013 C   0  0  0  0  0  0  0  0  0  0  0  0
    0.2177  -12.3207   19.7010 C   0  0  0  0  0  0  0  0  0  0  0  0
    2.5336   -9.5746   16.5999 C   0  0  0  0  0  0  0  0  0  0  0  0
    9.1473   -7.3187   18.0825 F   0  0  0  0  0  0  0  0  0  0  0  0
    1.3415  -10.8900   18.1876 C   0  0  0  0  0  0  0  0  0  0  0  0
    7.1259   -7.3926   15.9101 C   0  0  0  0  0  0  0  0  0  0  0  0
  1  2  1  0
  1 18  1  0
  1 25  1  0
  3  9  4  0
  3 19  4  0
  4  7  4  0
  4 10  4  0
  4 33  4  0
  5 11  4  0
  5 14  4  0
  6 22  1  0
  6 34  1  0
  7 24  4  0
  8 26  2  0
  9 14  4  0
 10 29  4  0
 11 13  1  0
 11 28  4  0
 12 21  1  0
 12 26  1  0
 12 29  1  0
 14 20  1  0
 15 23  1  0
 15 34  1  0
 16 26  1  0
 16 34  1  0
 17 31  4  0
 17 33  4  0
 19 28  4  0
 19 32  1  0
 21 22  1  0
 23 28  1  0
 24 30  4  0
 27 30  4  0
 27 33  4  0
 29 31  4  0
M  END
$$$$

 Created by Python create_sdf_string function

 34 51  0  0  0  0  0  0  0  0999 V2000
    9.6462   -0.0533   25.5733 N   0  0  0  0  0  0  0  0  0  0  0  0
    9.7013   -1.5706   24.6002 C   0  0  0  0  0  0  0  0  0  0  0  0
    2.9820  -11.0581   18.9156 C   0  0  0  0  0  0  0  0  0  0  0  0
   10.4846   -3.1822   18.0609 C   0  0  0  0  0  0  0  0  0  0  0  0
    7.5066   -8.8563   15.3806 C   0  0  0  0  0  0  0  0  0  0  0  0
    2.5290  -11.9176   20.4066 C   0  0  0  0  0  0  0  0  0  0  0  0
    5.2433   -9.1659   19.0696 O   0  0  0  0  0  0  0  0  0  0  0  0
   10.7364   -4.4960   19.8034 C   0  0  0  0  0  0  0  0  0  0  0  0
    3.6770  -10.4662   18.5039 C   0  0  0  0  0  0  0  0  0  0  0  0
   10.2838   -3.4529   15.6370 N   0  0  0  0  0  0  0  0  0  0  0  0
   11.0943   -3.3042   19.5280 C   0  0  0  0  0  0  0  0  0  0  0  0
    8.0479   -6.4620   15.6742 N   0  0  0  0  0  0  0  0  0  0  0  0
    6.2593   -7.7837   17.3272 C   0  0  0  0  0  0  0  0  0  0  0  0
    1.4973   -9.9875   16.9589 C   0  0  0  0  0  0  0  0  0  0  0  0
    8.9849   -0.3407   26.8610 C   0  0  0  0  0  0  0  0  0  0  0  0
    9.2257   -6.0940   18.3759 C   0  0  0  0  0  0  0  0  0  0  0  0
   11.3349   -2.6006   20.0289 O   0  0  0  0  0  0  0  0  0  0  0  0
    5.2138   -9.3036   15.5620 C   0  0  0  0  0  0  0  0  0  0  0  0
    5.5481   -9.3697   14.8090 O   0  0  0  0  0  0  0  0  0  0  0  0
    1.5059  -12.6432   20.1650 C   0  0  0  0  0  0  0  0  0  0  0  0
    9.2413    0.8488   25.1556 C   0  0  0  0  0  0  0  0  0  0  0  0
    5.7983   -9.0598   17.4228 C   0  0  0  0  0  0  0  0  0  0  0  0
    0.0742  -11.2648   18.5815 N   0  0  0  0  0  0  0  0  0  0  0  0
    9.2999   -5.1931   17.2089 C   0  0  0  0  0  0  0  0  0  0  0  0
    3.8312   -9.8477   17.6719 C   0  0  0  0  0  0  0  0  0  0  0  0
    0.3308  -12.4070   19.4841 C   0  0  0  0  0  0  0  0  0  0  0  0
    2.5088   -9.6271   16.7845 F   0  0  0  0  0  0  0  0  0  0  0  0
    9.2603   -7.3049   17.9417 F   0  0  0  0  0  0  0  0  0  0  0  0
    1.4400  -10.7627   18.1016 C   0  0  0  0  0  0  0  0  0  0  0  0
    6.8596   -7.2369   15.8805 C   0  0  0  0  0  0  0  0  0  0  0  0
    9.7870   -5.9046   19.1513 He  0  0  0  0  0  0  0  0  0  0  0  0
   10.1897   -3.8564   17.1297 He  0  0  0  0  0  0  0  0  0  0  0  0
    4.3584   -9.5019   16.7846 He  0  0  0  0  0  0  0  0  0  0  0  0
    8.0262   -5.5655   15.7577 He  0  0  0  0  0  0  0  0  0  0  0  0
  1  2  2  0
  1  7  3  0
  1 10  2  0
  1 14  4  0
  1 15  1  0
  1 21  1  0
  2  8  4  0
  2 12  1  0
  3  6  4  0
  3  9  4  0
  3 25  1  0
  3 29  4  0
  4 11  4  0
  4 22  3  0
  4 26  4  0
  5 19  2  0
  5 30  1  0
  6 20  4  0
  6 22  3  0
  7 11  3  0
  7 13  1  0
  7 22  2  0
  7 24  2  0
  8 11  2  0
  9 20  1  0
  9 25  4  0
 10 30  3  0
 11 12  4  0
 11 15  3  0
 11 17  1  0
 12 15  3  0
 12 30  1  0
 13 22  4  0
 13 30  2  0
 14 22  1  0
 14 27  4  0
 14 29  4  0
 15 20  2  0
 15 21  2  0
 16 28  1  0
 18 19  3  0
 19 22  1  0
 19 28  2  0
 20 26  4  0
 22 23  1  0
 23 26  4  0
 23 28  4  0
 23 29  4  0
 24 26  3  0
 25 27  4  0
 28 30  2  0
M  END
$$$$

 Created by Python create_sdf_string function

 34 36  0  0  0  0  0  0  0  0999 V2000
    9.5204   -0.2829   25.5230 N   0  0  0  0  0  0  0  0  0  0  0  0
    9.6718   -1.4073   24.6458 C   0  0  0  0  0  0  0  0  0  0  0  0
    9.9594   -5.8566   19.3566 C   0  0  0  0  0  0  0  0  0  0  0  0
    2.5170  -11.1489   18.9131 C   0  0  0  0  0  0  0  0  0  0  0  0
   10.6524   -3.2316   17.9585 C   0  0  0  0  0  0  0  0  0  0  0  0
    7.2165   -8.7337   15.1712 C   0  0  0  0  0  0  0  0  0  0  0  0
    2.4693  -12.0577   20.0544 C   0  0  0  0  0  0  0  0  0  0  0  0
    5.7654   -8.9713   18.9733 O   0  0  0  0  0  0  0  0  0  0  0  0
   10.4766   -4.7560   19.8051 C   0  0  0  0  0  0  0  0  0  0  0  0
    3.6982  -10.5514   18.4952 C   0  0  0  0  0  0  0  0  0  0  0  0
   10.0045   -3.9898   17.0486 C   0  0  0  0  0  0  0  0  0  0  0  0
    4.8057   -9.3669   16.7901 N   0  0  0  0  0  0  0  0  0  0  0  0
   10.0165   -3.5004   15.6346 F   0  0  0  0  0  0  0  0  0  0  0  0
   10.8209   -3.5529   19.2458 C   0  0  0  0  0  0  0  0  0  0  0  0
    7.9478   -6.5419   15.7275 N   0  0  0  0  0  0  0  0  0  0  0  0
    6.4281   -7.5647   17.1666 C   0  0  0  0  0  0  0  0  0  0  0  0
    1.3365  -10.0777   17.1525 C   0  0  0  0  0  0  0  0  0  0  0  0
    9.0171   -0.4815   26.8873 C   0  0  0  0  0  0  0  0  0  0  0  0
    9.4548   -6.0529   18.1565 C   0  0  0  0  0  0  0  0  0  0  0  0
   11.3757   -2.6570   20.0092 O   0  0  0  0  0  0  0  0  0  0  0  0
    4.9807   -9.3586   15.4441 C   0  0  0  0  0  0  0  0  0  0  0  0
    5.9715   -9.4111   14.7302 C   0  0  0  0  0  0  0  0  0  0  0  0
    8.3725   -5.4616   16.0854 C   0  0  0  0  0  0  0  0  0  0  0  0
    1.2999  -12.6236   20.3842 C   0  0  0  0  0  0  0  0  0  0  0  0
    9.2297    0.9929   24.8800 C   0  0  0  0  0  0  0  0  0  0  0  0
    5.7321   -8.6840   17.7057 C   0  0  0  0  0  0  0  0  0  0  0  0
    0.1736  -11.5620   18.6174 N   0  0  0  0  0  0  0  0  0  0  0  0
    9.3213   -5.1310   17.1691 C   0  0  0  0  0  0  0  0  0  0  0  0
    3.6923   -9.8476   17.4170 C   0  0  0  0  0  0  0  0  0  0  0  0
    0.1969  -12.3776   19.6500 C   0  0  0  0  0  0  0  0  0  0  0  0
    2.5121   -9.5992   16.7393 C   0  0  0  0  0  0  0  0  0  0  0  0
    9.1258   -7.3392   18.0347 F   0  0  0  0  0  0  0  0  0  0  0  0
    1.3265  -10.9233   18.2362 C   0  0  0  0  0  0  0  0  0  0  0  0
    7.0014   -7.4607   15.9088 C   0  0  0  0  0  0  0  0  0  0  0  0
  1  2  1  0
  1 18  1  0
  1 25  1  0
  3  9  4  0
  3 19  4  0
  4  7  4  0
  4 10  4  0
  4 33  4  0
  5 11  4  0
  5 14  4  0
  6 22  1  0
  6 34  1  0
  7 24  4  0
  8 26  2  0
  9 14  4  0
 10 29  4  0
 11 13  1  0
 11 28  4  0
 12 21  1  0
 12 26  1  0
 12 29  1  0
 14 20  1  0
 15 23  1  0
 15 34  1  0
 16 26  1  0
 16 34  2  0
 17 31  4  0
 17 33  4  0
 19 28  4  0
 19 32  1  0
 21 22  1  0
 23 28  1  0
 24 30  4  0
 27 30  4  0
 27 33  4  0
 29 31  4  0
M  END
$$$$

 Created by Python create_sdf_string function

 34 55  0  0  0  0  0  0  0  0999 V2000
    9.6767   -1.3575   24.4200 C   0  0  0  0  0  0  0  0  0  0  0  0
    9.9672   -5.8006   19.5700 C   0  0  0  0  0  0  0  0  0  0  0  0
    2.6376  -10.7688   19.1741 C   0  0  0  0  0  0  0  0  0  0  0  0
   10.5046   -3.1440   18.0682 C   0  0  0  0  0  0  0  0  0  0  0  0
    7.3383   -8.5579   15.1667 C   0  0  0  0  0  0  0  0  0  0  0  0
    2.5217  -11.8479   20.1534 C   0  0  0  0  0  0  0  0  0  0  0  0
    5.6765   -8.5440   19.3407 O   0  0  0  0  0  0  0  0  0  0  0  0
   10.6183   -4.6634   19.8489 C   0  0  0  0  0  0  0  0  0  0  0  0
    3.4586  -10.4403   18.3100 C   0  0  0  0  0  0  0  0  0  0  0  0
   10.0413   -4.0454   17.0670 C   0  0  0  0  0  0  0  0  0  0  0  0
    4.9513   -9.1608   17.3485 B   0  0  0  0  0  0  0  0  0  0  0  0
   10.0576   -3.8420   15.7225 F   0  0  0  0  0  0  0  0  0  0  0  0
   10.9389   -3.6194   19.2167 C   0  0  0  0  0  0  0  0  0  0  0  0
    6.3635   -7.6173   17.3368 C   0  0  0  0  0  0  0  0  0  0  0  0
    1.2591   -9.9542   17.0981 C   0  0  0  0  0  0  0  0  0  0  0  0
    9.0687   -0.4030   26.6674 C   0  0  0  0  0  0  0  0  0  0  0  0
    9.4492   -6.2171   18.1715 C   0  0  0  0  0  0  0  0  0  0  0  0
   11.5506   -2.7164   20.0030 O   0  0  0  0  0  0  0  0  0  0  0  0
    6.3593   -9.1217   14.4223 C   0  0  0  0  0  0  0  0  0  0  0  0
    8.4877   -5.6563   16.0081 C   0  0  0  0  0  0  0  0  0  0  0  0
    1.2822  -12.5805   20.4560 C   0  0  0  0  0  0  0  0  0  0  0  0
    9.0660    1.0165   24.7954 C   0  0  0  0  0  0  0  0  0  0  0  0
    6.0694   -8.8583   17.6039 C   0  0  0  0  0  0  0  0  0  0  0  0
    9.4273   -5.3214   17.1975 C   0  0  0  0  0  0  0  0  0  0  0  0
    3.6174   -9.5356   17.6277 C   0  0  0  0  0  0  0  0  0  0  0  0
    0.1945  -12.2971   19.5330 F   0  0  0  0  0  0  0  0  0  0  0  0
    2.4475   -9.3832   16.6856 C   0  0  0  0  0  0  0  0  0  0  0  0
    9.2057   -7.3495   17.9722 F   0  0  0  0  0  0  0  0  0  0  0  0
    1.2994  -10.9756   18.4487 C   0  0  0  0  0  0  0  0  0  0  0  0
    9.6432   -0.2768   25.4339 He  0  0  0  0  0  0  0  0  0  0  0  0
    7.8878   -6.2836   15.7474 He  0  0  0  0  0  0  0  0  0  0  0  0
    5.0231   -9.3128   15.6551 He  0  0  0  0  0  0  0  0  0  0  0  0
    0.1199  -11.5458   18.5704 He  0  0  0  0  0  0  0  0  0  0  0  0
    7.1473   -7.5504   15.9621 He  0  0  0  0  0  0  0  0  0  0  0  0
  1  4  1  0
  1 29  3  0
  2  4  3  0
  2  8  4  0
  2 17  4  0
  2 19  4  0
  2 25  1  0
  3  6  4  0
  3  9  4  0
  3 11  3  0
  3 29  4  0
  4 10  4  0
  4 13  4  0
  4 19  4  0
  4 28  3  0
  5 11  2  0
  5 17  1  0
  5 19  1  0
  5 22  2  0
  6  7  2  0
  6 21  4  0
  6 27  3  0
  7 11  3  0
  7 14  1  0
  7 18  3  0
  7 23  4  0
  8 13  4  0
  8 19  3  0
  8 25  1  0
  9 15  3  0
  9 25  4  0
 10 12  1  0
 10 20  4  0
 10 24  4  0
 11 22  4  0
 11 24  1  0
 11 25  1  0
 12 29  3  0
 13 18  1  0
 13 27  3  0
 14 22  3  0
 14 23  2  0
 15 27  4  0
 15 29  4  0
 17 24  4  0
 17 28  1  0
 19 27  3  0
 19 29  1  0
 20 23  2  0
 20 24  1  0
 20 26  1  0
 21 23  2  0
 21 26  4  0
 24 29  2  0
 25 27  1  0
M  END
$$$$

 Created by Python create_sdf_string function

 34 36  0  0  0  0  0  0  0  0999 V2000
    9.5324   -0.2252   25.3729 N   0  0  0  0  0  0  0  0  0  0  0  0
    9.7045   -1.3685   24.4173 C   0  0  0  0  0  0  0  0  0  0  0  0
   10.0756   -5.8332   19.4331 C   0  0  0  0  0  0  0  0  0  0  0  0
    2.4624  -11.0785   18.9842 C   0  0  0  0  0  0  0  0  0  0  0  0
   10.6573   -3.3154   17.9576 C   0  0  0  0  0  0  0  0  0  0  0  0
    7.3317   -8.5681   15.1733 C   0  0  0  0  0  0  0  0  0  0  0  0
    2.4209  -11.9295   20.1266 C   0  0  0  0  0  0  0  0  0  0  0  0
    5.7928   -8.7296   19.0889 O   0  0  0  0  0  0  0  0  0  0  0  0
   10.5689   -4.7428   19.8785 C   0  0  0  0  0  0  0  0  0  0  0  0
    3.6153  -10.4423   18.5587 C   0  0  0  0  0  0  0  0  0  0  0  0
   10.0463   -4.0497   17.0526 C   0  0  0  0  0  0  0  0  0  0  0  0
    4.8533   -9.2207   16.8861 N   0  0  0  0  0  0  0  0  0  0  0  0
   10.0243   -3.5692   15.7704 F   0  0  0  0  0  0  0  0  0  0  0  0
   10.8634   -3.5914   19.2404 C   0  0  0  0  0  0  0  0  0  0  0  0
    7.8704   -6.3923   15.7429 C   0  0  0  0  0  0  0  0  0  0  0  0
    6.6265   -7.5630   17.2254 C   0  0  0  0  0  0  0  0  0  0  0  0
    1.3011  -10.0073   17.2141 C   0  0  0  0  0  0  0  0  0  0  0  0
    9.0776   -0.4864   26.7241 C   0  0  0  0  0  0  0  0  0  0  0  0
    9.5755   -6.0773   18.2522 C   0  0  0  0  0  0  0  0  0  0  0  0
   11.4564   -2.6600   19.9301 O   0  0  0  0  0  0  0  0  0  0  0  0
    5.0656   -9.3418   15.5280 C   0  0  0  0  0  0  0  0  0  0  0  0
    6.1412   -9.3179   14.8235 C   0  0  0  0  0  0  0  0  0  0  0  0
    8.6147   -5.5242   16.0787 C   0  0  0  0  0  0  0  0  0  0  0  0
    1.2374  -12.5465   20.4514 C   0  0  0  0  0  0  0  0  0  0  0  0
    9.0619    1.0374   24.7260 C   0  0  0  0  0  0  0  0  0  0  0  0
    5.8055   -8.5686   17.7616 C   0  0  0  0  0  0  0  0  0  0  0  0
    0.1471  -11.5413   18.6533 N   0  0  0  0  0  0  0  0  0  0  0  0
    9.4280   -5.1973   17.1936 C   0  0  0  0  0  0  0  0  0  0  0  0
    3.6762   -9.7222   17.4614 C   0  0  0  0  0  0  0  0  0  0  0  0
    0.1534  -12.3625   19.7006 C   0  0  0  0  0  0  0  0  0  0  0  0
    2.4864   -9.4453   16.7905 C   0  0  0  0  0  0  0  0  0  0  0  0
    9.2136   -7.4014   18.0913 F   0  0  0  0  0  0  0  0  0  0  0  0
    1.2979  -10.8891   18.2707 C   0  0  0  0  0  0  0  0  0  0  0  0
    7.1317   -7.4135   16.0166 C   0  0  0  0  0  0  0  0  0  0  0  0
  1  2  1  0
  1 18  1  0
  1 25  1  0
  3  9  4  0
  3 19  4  0
  4  7  4  0
  4 10  4  0
  4 33  4  0
  5 11  4  0
  5 14  4  0
  6 22  1  0
  6 34  1  0
  7 24  4  0
  8 26  1  0
  9 14  4  0
 10 29  4  0
 11 13  1  0
 11 28  4  0
 12 21  1  0
 12 26  1  0
 12 29  1  0
 14 20  1  0
 15 23  1  0
 15 34  1  0
 16 26  1  0
 16 34  1  0
 17 31  4  0
 17 33  4  0
 19 28  4  0
 19 32  1  0
 21 22  1  0
 23 28  1  0
 24 30  4  0
 27 30  4  0
 27 33  4  0
 29 31  4  0
M  END
$$$$

 Created by Python create_sdf_string function

 34 42  0  0  0  0  0  0  0  0999 V2000
    9.3056   -0.4742   25.2148 N   0  0  0  0  0  0  0  0  0  0  0  0
    9.7797   -1.3543   24.5761 C   0  0  0  0  0  0  0  0  0  0  0  0
    9.8187   -5.8574   19.0982 C   0  0  0  0  0  0  0  0  0  0  0  0
    2.3698  -10.9943   18.8595 C   0  0  0  0  0  0  0  0  0  0  0  0
   10.6703   -3.3819   17.9545 C   0  0  0  0  0  0  0  0  0  0  0  0
    7.3166   -8.6622   15.1615 C   0  0  0  0  0  0  0  0  0  0  0  0
    2.6644  -11.8747   20.5355 C   0  0  0  0  0  0  0  0  0  0  0  0
    5.6225   -8.9844   19.2701 O   0  0  0  0  0  0  0  0  0  0  0  0
   10.6544   -4.7523   20.1672 C   0  0  0  0  0  0  0  0  0  0  0  0
    3.6834  -10.6695   18.5894 C   0  0  0  0  0  0  0  0  0  0  0  0
   10.0576   -4.0976   16.9956 C   0  0  0  0  0  0  0  0  0  0  0  0
    9.9256   -3.6152   15.8995 F   0  0  0  0  0  0  0  0  0  0  0  0
   10.9751   -3.7056   18.9455 C   0  0  0  0  0  0  0  0  0  0  0  0
    7.8271   -6.0583   15.6419 C   0  0  0  0  0  0  0  0  0  0  0  0
    6.7482   -7.5535   17.0661 C   0  0  0  0  0  0  0  0  0  0  0  0
    1.2129  -10.1883   17.2288 C   0  0  0  0  0  0  0  0  0  0  0  0
    9.2348   -0.7294   26.6661 C   0  0  0  0  0  0  0  0  0  0  0  0
    9.5888   -5.8406   18.1403 C   0  0  0  0  0  0  0  0  0  0  0  0
   11.4440   -2.6600   19.7332 O   0  0  0  0  0  0  0  0  0  0  0  0
    5.2202   -9.2617   15.5255 C   0  0  0  0  0  0  0  0  0  0  0  0
    5.5880   -8.7347   14.5622 C   0  0  0  0  0  0  0  0  0  0  0  0
    8.6918   -5.0865   15.7058 C   0  0  0  0  0  0  0  0  0  0  0  0
    8.9872    1.0793   24.6415 C   0  0  0  0  0  0  0  0  0  0  0  0
    6.3156   -9.0305   17.5051 C   0  0  0  0  0  0  0  0  0  0  0  0
    0.2978  -11.6590   18.7385 N   0  0  0  0  0  0  0  0  0  0  0  0
    9.5028   -4.7976   17.3931 C   0  0  0  0  0  0  0  0  0  0  0  0
    3.7203   -9.8064   17.4907 C   0  0  0  0  0  0  0  0  0  0  0  0
    2.2469   -9.3944   16.8139 C   0  0  0  0  0  0  0  0  0  0  0  0
    9.1971   -7.4512   18.3341 F   0  0  0  0  0  0  0  0  0  0  0  0
    1.1913  -10.9906   18.3530 C   0  0  0  0  0  0  0  0  0  0  0  0
    7.0816   -7.4936   16.1881 C   0  0  0  0  0  0  0  0  0  0  0  0
    4.8378   -9.6636   16.6637 He  0  0  0  0  0  0  0  0  0  0  0  0
    1.2220  -12.6589   20.4546 He  0  0  0  0  0  0  0  0  0  0  0  0
    0.2760  -12.6211   19.9437 He  0  0  0  0  0  0  0  0  0  0  0  0
  1  2  1  0
  1 17  1  0
  1 23  1  0
  2 25  3  0
  3 18  4  0
  3 25  3  0
  4  7  4  0
  4 10  4  0
  4 30  4  0
  5 11  4  0
  5 13  4  0
  5 28  1  0
  6 22  3  0
  6 31  1  0
  8 24  1  0
  9 11  1  0
  9 13  4  0
  9 18  2  0
 10 27  4  0
 11 12  1  0
 11 24  4  0
 11 26  4  0
 11 31  3  0
 12 26  4  0
 13 19  1  0
 14 31  1  0
 15 18  1  0
 15 31  1  0
 16 28  4  0
 16 30  4  0
 17 25  2  0
 17 29  4  0
 18 26  4  0
 18 29  1  0
 20 21  1  0
 20 24  3  0
 20 29  4  0
 22 30  1  0
 24 27  3  0
 25 30  4  0
 26 27  4  0
 27 28  4  0
M  END
$$$$

 Created by Python create_sdf_string function

 34 36  0  0  0  0  0  0  0  0999 V2000
    9.2664   -0.3738   25.2489 N   0  0  0  0  0  0  0  0  0  0  0  0
    9.7693   -1.4055   24.3541 C   0  0  0  0  0  0  0  0  0  0  0  0
   10.0009   -5.8590   19.3236 C   0  0  0  0  0  0  0  0  0  0  0  0
    2.4899  -11.2033   19.0556 C   0  0  0  0  0  0  0  0  0  0  0  0
   10.7377   -3.3094   17.9036 C   0  0  0  0  0  0  0  0  0  0  0  0
    7.1826   -8.4851   15.1109 C   0  0  0  0  0  0  0  0  0  0  0  0
    2.4588  -12.0101   20.2347 C   0  0  0  0  0  0  0  0  0  0  0  0
    5.8825   -9.0547   18.9915 O   0  0  0  0  0  0  0  0  0  0  0  0
   10.5942   -4.7420   19.8335 C   0  0  0  0  0  0  0  0  0  0  0  0
    3.6269  -10.6154   18.5735 C   0  0  0  0  0  0  0  0  0  0  0  0
   10.0512   -4.0008   17.0007 C   0  0  0  0  0  0  0  0  0  0  0  0
    4.8153   -9.3447   16.8449 C   0  0  0  0  0  0  0  0  0  0  0  0
    9.9503   -3.4778   15.7312 F   0  0  0  0  0  0  0  0  0  0  0  0
   10.9240   -3.6047   19.1984 C   0  0  0  0  0  0  0  0  0  0  0  0
    7.9237   -6.3175   15.7885 C   0  0  0  0  0  0  0  0  0  0  0  0
    6.5727   -7.6361   17.2497 C   0  0  0  0  0  0  0  0  0  0  0  0
    1.2737  -10.1684   17.3008 C   0  0  0  0  0  0  0  0  0  0  0  0
    9.1638   -0.6157   26.6651 C   0  0  0  0  0  0  0  0  0  0  0  0
    9.4988   -6.0116   18.1728 C   0  0  0  0  0  0  0  0  0  0  0  0
   11.5276   -2.6900   19.9000 O   0  0  0  0  0  0  0  0  0  0  0  0
    4.9310   -9.3725   15.5058 C   0  0  0  0  0  0  0  0  0  0  0  0
    5.7770   -8.7255   14.7344 C   0  0  0  0  0  0  0  0  0  0  0  0
    8.5314   -5.3516   16.0366 C   0  0  0  0  0  0  0  0  0  0  0  0
    1.2921  -12.6078   20.5967 C   0  0  0  0  0  0  0  0  0  0  0  0
    8.9715    0.9293   24.6883 C   0  0  0  0  0  0  0  0  0  0  0  0
    5.9666   -8.9482   17.6257 C   0  0  0  0  0  0  0  0  0  0  0  0
    0.1792  -11.7057   18.7831 N   0  0  0  0  0  0  0  0  0  0  0  0
    9.4111   -5.1064   17.1544 C   0  0  0  0  0  0  0  0  0  0  0  0
    3.6402   -9.8717   17.4592 C   0  0  0  0  0  0  0  0  0  0  0  0
    0.1928  -12.4836   19.8423 C   0  0  0  0  0  0  0  0  0  0  0  0
    2.4305   -9.6428   16.8112 C   0  0  0  0  0  0  0  0  0  0  0  0
    9.1119   -7.3464   18.1683 F   0  0  0  0  0  0  0  0  0  0  0  0
    1.2962  -11.0298   18.3733 C   0  0  0  0  0  0  0  0  0  0  0  0
    7.2243   -7.4122   16.0648 C   0  0  0  0  0  0  0  0  0  0  0  0
  1  2  1  0
  1 18  1  0
  1 25  1  0
  3  9  4  0
  3 19  4  0
  4  7  4  0
  4 10  4  0
  4 33  4  0
  5 11  4  0
  5 14  4  0
  6 22  1  0
  6 34  1  0
  7 24  4  0
  8 26  1  0
  9 14  4  0
 10 29  4  0
 11 13  1  0
 11 28  4  0
 12 21  1  0
 12 26  1  0
 12 29  1  0
 14 20  1  0
 15 23  1  0
 15 34  1  0
 16 26  1  0
 16 34  1  0
 17 31  4  0
 17 33  4  0
 19 28  4  0
 19 32  1  0
 21 22  1  0
 23 28  1  0
 24 30  4  0
 27 30  4  0
 27 33  4  0
 29 31  4  0
M  END
$$$$

 Created by Python create_sdf_string function

 34 50  0  0  0  0  0  0  0  0999 V2000
    9.0132   -0.3634   25.1113 N   0  0  0  0  0  0  0  0  0  0  0  0
    9.7951   -1.3792   24.5665 C   0  0  0  0  0  0  0  0  0  0  0  0
    9.9098   -5.8780   19.3413 C   0  0  0  0  0  0  0  0  0  0  0  0
    2.6095  -11.1405   19.0489 C   0  0  0  0  0  0  0  0  0  0  0  0
   10.4594   -3.1879   17.7654 C   0  0  0  0  0  0  0  0  0  0  0  0
    7.3623   -8.4639   15.1104 C   0  0  0  0  0  0  0  0  0  0  0  0
    2.6011  -12.0348   20.1698 C   0  0  0  0  0  0  0  0  0  0  0  0
    5.6338   -8.8125   19.0176 O   0  0  0  0  0  0  0  0  0  0  0  0
   10.6818   -4.7232   19.9212 C   0  0  0  0  0  0  0  0  0  0  0  0
    3.7280  -10.6516   18.7684 C   0  0  0  0  0  0  0  0  0  0  0  0
   10.1141   -3.7850   16.9993 C   0  0  0  0  0  0  0  0  0  0  0  0
    4.9157   -9.4303   16.8257 C   0  0  0  0  0  0  0  0  0  0  0  0
    9.9378   -3.6551   15.7040 Cl  0  0  0  0  0  0  0  0  0  0  0  0
   10.9826   -3.8466   19.3421 C   0  0  0  0  0  0  0  0  0  0  0  0
    8.0592   -6.2876   15.8021 C   0  0  0  0  0  0  0  0  0  0  0  0
    6.4931   -7.8735   17.0559 C   0  0  0  0  0  0  0  0  0  0  0  0
    9.1580   -0.6104   26.5009 C   0  0  0  0  0  0  0  0  0  0  0  0
    9.3900   -5.9887   18.0982 C   0  0  0  0  0  0  0  0  0  0  0  0
   11.7780   -2.6942   19.4765 O   0  0  0  0  0  0  0  0  0  0  0  0
    4.9763   -9.3703   15.6109 C   0  0  0  0  0  0  0  0  0  0  0  0
    5.6594   -8.6628   14.3818 C   0  0  0  0  0  0  0  0  0  0  0  0
    8.4535   -5.4889   15.4808 C   0  0  0  0  0  0  0  0  0  0  0  0
    1.2106  -12.6137   20.5252 C   0  0  0  0  0  0  0  0  0  0  0  0
    9.0436    0.5548   24.7261 C   0  0  0  0  0  0  0  0  0  0  0  0
    0.1028  -11.5879   18.8941 N   0  0  0  0  0  0  0  0  0  0  0  0
    9.2991   -5.2263   17.4828 O   0  0  0  0  0  0  0  0  0  0  0  0
    3.4102   -9.7996   17.5273 C   0  0  0  0  0  0  0  0  0  0  0  0
    0.0021  -12.0536   20.0756 C   0  0  0  0  0  0  0  0  0  0  0  0
    2.3692   -9.5897   16.5287 C   0  0  0  0  0  0  0  0  0  0  0  0
    9.1293   -7.4410   18.1849 F   0  0  0  0  0  0  0  0  0  0  0  0
    1.3938  -11.0152   18.4601 C   0  0  0  0  0  0  0  0  0  0  0  0
    1.1978  -10.1638   17.1828 He  0  0  0  0  0  0  0  0  0  0  0  0
    5.9716   -9.3646   17.9149 He  0  0  0  0  0  0  0  0  0  0  0  0
    7.3284   -7.3777   15.8885 He  0  0  0  0  0  0  0  0  0  0  0  0
  1  2  1  0
  1 12  4  0
  1 17  1  0
  1 21  1  0
  1 24  1  0
  2 13  1  0
  3  9  4  0
  3 14  1  0
  3 18  4  0
  3 24  2  0
  4  5  2  0
  4  7  4  0
  4 31  4  0
  5  7  2  0
  5 11  4  0
  5 14  4  0
  6 15  1  0
  6 21  1  0
  6 23  2  0
  7 23  4  0
  7 27  3  0
  8 15  3  0
  8 19  3  0
  8 29  2  0
  9 14  4  0
 10 27  4  0
 10 28  2  0
 11 13  1  0
 11 26  4  0
 12 13  3  0
 12 15  2  0
 12 19  3  0
 12 27  1  0
 13 17  1  0
 14 19  1  0
 15 22  4  0
 16 23  3  0
 16 27  4  0
 17 20  1  0
 18 19  3  0
 18 25  1  0
 18 26  4  0
 18 30  1  0
 20 25  4  0
 23 28  4  0
 25 28  4  0
 25 29  2  0
 25 31  4  0
 26 30  2  0
 27 29  4  0
M  END
$$$$

 Created by Python create_sdf_string function

 34 36  0  0  0  0  0  0  0  0999 V2000
    9.1384   -0.4906   25.1951 N   0  0  0  0  0  0  0  0  0  0  0  0
    9.7605   -1.5090   24.3952 C   0  0  0  0  0  0  0  0  0  0  0  0
    9.9805   -5.8871   19.3324 C   0  0  0  0  0  0  0  0  0  0  0  0
    2.4735  -11.2224   19.0484 C   0  0  0  0  0  0  0  0  0  0  0  0
   10.6717   -3.2879   17.8665 C   0  0  0  0  0  0  0  0  0  0  0  0
    7.1283   -8.4237   15.0146 C   0  0  0  0  0  0  0  0  0  0  0  0
    2.4381  -12.0725   20.1901 C   0  0  0  0  0  0  0  0  0  0  0  0
    5.7993   -8.9486   18.9610 O   0  0  0  0  0  0  0  0  0  0  0  0
   10.6177   -4.7597   19.7838 C   0  0  0  0  0  0  0  0  0  0  0  0
    3.6368  -10.6523   18.5676 C   0  0  0  0  0  0  0  0  0  0  0  0
    9.9752   -4.0310   16.9736 C   0  0  0  0  0  0  0  0  0  0  0  0
    4.8298   -9.4257   16.7884 C   0  0  0  0  0  0  0  0  0  0  0  0
    9.8509   -3.4547   15.6509 F   0  0  0  0  0  0  0  0  0  0  0  0
   10.9579   -3.5954   19.1496 C   0  0  0  0  0  0  0  0  0  0  0  0
    8.0975   -6.5440   15.9542 C   0  0  0  0  0  0  0  0  0  0  0  0
    6.4648   -7.8131   17.3044 C   0  0  0  0  0  0  0  0  0  0  0  0
    1.2561  -10.2212   17.2947 C   0  0  0  0  0  0  0  0  0  0  0  0
    9.0720   -0.6157   26.6217 C   0  0  0  0  0  0  0  0  0  0  0  0
    9.4760   -6.0550   18.1584 C   0  0  0  0  0  0  0  0  0  0  0  0
   11.6251   -2.7316   19.8291 O   0  0  0  0  0  0  0  0  0  0  0  0
    4.8943   -9.3752   15.4260 C   0  0  0  0  0  0  0  0  0  0  0  0
    5.7521   -8.7019   14.7032 C   0  0  0  0  0  0  0  0  0  0  0  0
    8.5146   -5.4737   15.9353 C   0  0  0  0  0  0  0  0  0  0  0  0
    1.2505  -12.5269   20.6791 C   0  0  0  0  0  0  0  0  0  0  0  0
    8.9468    0.7955   24.5979 C   0  0  0  0  0  0  0  0  0  0  0  0
    5.9399   -8.9853   17.6043 C   0  0  0  0  0  0  0  0  0  0  0  0
    0.1115  -11.4773   18.9336 N   0  0  0  0  0  0  0  0  0  0  0  0
    9.3686   -5.2134   17.1070 C   0  0  0  0  0  0  0  0  0  0  0  0
    3.6330   -9.9324   17.4358 C   0  0  0  0  0  0  0  0  0  0  0  0
    0.0933  -12.2420   20.0235 C   0  0  0  0  0  0  0  0  0  0  0  0
    2.4238   -9.6870   16.7681 C   0  0  0  0  0  0  0  0  0  0  0  0
    9.0764   -7.3876   18.1671 F   0  0  0  0  0  0  0  0  0  0  0  0
    1.2563  -10.9767   18.4170 C   0  0  0  0  0  0  0  0  0  0  0  0
    7.2713   -7.4441   16.0708 N   0  0  0  0  0  0  0  0  0  0  0  0
  1  2  1  0
  1 18  1  0
  1 25  1  0
  3  9  4  0
  3 19  4  0
  4  7  4  0
  4 10  4  0
  4 33  4  0
  5 11  4  0
  5 14  4  0
  6 22  1  0
  6 34  1  0
  7 24  4  0
  8 26  1  0
  9 14  4  0
 10 29  4  0
 11 13  1  0
 11 28  4  0
 12 21  1  0
 12 26  1  0
 12 29  1  0
 14 20  1  0
 15 23  1  0
 15 34  1  0
 16 26  1  0
 16 34  1  0
 17 31  4  0
 17 33  4  0
 19 28  4  0
 19 32  1  0
 21 22  1  0
 23 28  1  0
 24 30  4  0
 27 30  4  0
 27 33  4  0
 29 31  4  0
M  END
$$$$

 Created by Python create_sdf_string function

 34 53  0  0  0  0  0  0  0  0999 V2000
    9.1285   -0.5061   25.1894 N   0  0  0  0  0  0  0  0  0  0  0  0
    9.7218   -1.5140   24.7511 C   0  0  0  0  0  0  0  0  0  0  0  0
    9.8506   -5.9392   19.1834 C   0  0  0  0  0  0  0  0  0  0  0  0
    2.6121  -11.0303   19.0932 C   0  0  0  0  0  0  0  0  0  0  0  0
   10.6910   -3.2634   17.7860 C   0  0  0  0  0  0  0  0  0  0  0  0
    7.2729   -8.5175   15.0155 C   0  0  0  0  0  0  0  0  0  0  0  0
    2.4422  -12.0253   20.3600 C   0  0  0  0  0  0  0  0  0  0  0  0
    5.8214   -8.4625   18.8234 Cl  0  0  0  0  0  0  0  0  0  0  0  0
   10.3974   -4.9372   19.8582 C   0  0  0  0  0  0  0  0  0  0  0  0
    3.8170  -10.8956   18.5117 C   0  0  0  0  0  0  0  0  0  0  0  0
   10.0386   -3.9290   16.9236 C   0  0  0  0  0  0  0  0  0  0  0  0
    4.6391   -9.3612   16.4690 C   0  0  0  0  0  0  0  0  0  0  0  0
    9.8669   -3.4522   15.6007 F   0  0  0  0  0  0  0  0  0  0  0  0
   11.0934   -3.6181   19.3295 C   0  0  0  0  0  0  0  0  0  0  0  0
    7.9432   -6.6491   16.0940 C   0  0  0  0  0  0  0  0  0  0  0  0
    6.4598   -8.0785   17.3141 C   0  0  0  0  0  0  0  0  0  0  0  0
    1.3674  -10.2229   17.3385 C   0  0  0  0  0  0  0  0  0  0  0  0
    9.2884   -0.4669   26.6903 C   0  0  0  0  0  0  0  0  0  0  0  0
    9.5392   -5.8574   18.2473 C   0  0  0  0  0  0  0  0  0  0  0  0
   11.6309   -2.6604   19.7049 O   0  0  0  0  0  0  0  0  0  0  0  0
    4.9054   -9.4149   15.3086 C   0  0  0  0  0  0  0  0  0  0  0  0
    8.2378   -5.6043   15.9150 C   0  0  0  0  0  0  0  0  0  0  0  0
    1.2187  -12.4805   20.5367 C   0  0  0  0  0  0  0  0  0  0  0  0
    9.1028    0.8489   24.4668 C   0  0  0  0  0  0  0  0  0  0  0  0
    6.1033   -8.7993   17.4402 F   0  0  0  0  0  0  0  0  0  0  0  0
    0.0785  -11.5581   19.0069 N   0  0  0  0  0  0  0  0  0  0  0  0
    3.5196  -10.0112   17.7687 C   0  0  0  0  0  0  0  0  0  0  0  0
    2.5118   -9.6464   16.8767 C   0  0  0  0  0  0  0  0  0  0  0  0
    9.2153   -7.1726   18.2150 F   0  0  0  0  0  0  0  0  0  0  0  0
    1.2102  -10.9429   18.2897 C   0  0  0  0  0  0  0  0  0  0  0  0
    7.6335   -7.6617   15.9470 N   0  0  0  0  0  0  0  0  0  0  0  0
    5.9957   -8.8335   14.6536 He  0  0  0  0  0  0  0  0  0  0  0  0
    9.5834   -5.1202   16.9260 He  0  0  0  0  0  0  0  0  0  0  0  0
   -0.0328  -12.2136   19.9824 He  0  0  0  0  0  0  0  0  0  0  0  0
  1  2  1  0
  1  8  2  0
  1 18  1  0
  1 24  1  0
  1 26  4  0
  2 21  3  0
  2 24  4  0
  2 29  3  0
  3  5  3  0
  3  9  4  0
  3 15  3  0
  3 19  4  0
  4  7  4  0
  4 10  4  0
  4 30  2  0
  5 11  4  0
  5 14  4  0
  6 13  1  0
  6 17  2  0
  6 31  1  0
  7 22  4  0
  7 23  4  0
  7 29  2  0
  8 11  1  0
  8 15  1  0
  8 25  1  0
  9 14  4  0
  9 17  4  0
 10 21  3  0
 10 27  4  0
 11 13  1  0
 11 19  4  0
 12 16  2  0
 12 21  1  0
 12 27  1  0
 12 30  2  0
 13 30  1  0
 13 31  3  0
 14 20  3  0
 14 29  3  0
 15 31  1  0
 16 25  1  0
 16 31  1  0
 17 28  4  0
 17 30  4  0
 18 22  3  0
 19 29  1  0
 22 25  3  0
 26 30  4  0
 27 28  4  0
 27 30  4  0
 28 31  1  0
 30 31  2  0
M  END
$$$$

 Created by Python create_sdf_string function

 34 36  0  0  0  0  0  0  0  0999 V2000
    9.1474   -0.4618   25.2665 N   0  0  0  0  0  0  0  0  0  0  0  0
    9.7179   -1.6208   24.5723 C   0  0  0  0  0  0  0  0  0  0  0  0
    9.9419   -5.9321   19.2264 C   0  0  0  0  0  0  0  0  0  0  0  0
    2.4863  -11.2428   19.0730 C   0  0  0  0  0  0  0  0  0  0  0  0
   10.7215   -3.3023   17.8495 C   0  0  0  0  0  0  0  0  0  0  0  0
    7.2483   -8.6707   15.0120 C   0  0  0  0  0  0  0  0  0  0  0  0
    2.4357  -12.0513   20.2276 C   0  0  0  0  0  0  0  0  0  0  0  0
    5.8000   -8.6947   18.7370 O   0  0  0  0  0  0  0  0  0  0  0  0
   10.5895   -4.7390   19.7833 C   0  0  0  0  0  0  0  0  0  0  0  0
    3.6399  -10.6883   18.5508 C   0  0  0  0  0  0  0  0  0  0  0  0
   10.0347   -3.9688   16.9465 C   0  0  0  0  0  0  0  0  0  0  0  0
    4.7976   -9.4502   16.7238 C   0  0  0  0  0  0  0  0  0  0  0  0
    9.9404   -3.3955   15.6900 F   0  0  0  0  0  0  0  0  0  0  0  0
   10.9283   -3.5964   19.1422 C   0  0  0  0  0  0  0  0  0  0  0  0
    8.0398   -6.5737   15.7251 C   0  0  0  0  0  0  0  0  0  0  0  0
    6.5198   -7.8834   17.1867 C   0  0  0  0  0  0  0  0  0  0  0  0
    1.2503  -10.1678   17.3348 C   0  0  0  0  0  0  0  0  0  0  0  0
    9.2186   -0.3967   26.7096 C   0  0  0  0  0  0  0  0  0  0  0  0
    9.5183   -6.0210   18.1583 C   0  0  0  0  0  0  0  0  0  0  0  0
   11.5465   -2.7300   19.8400 O   0  0  0  0  0  0  0  0  0  0  0  0
    4.9115   -9.3772   15.3223 C   0  0  0  0  0  0  0  0  0  0  0  0
    5.9144   -8.8525   14.6449 C   0  0  0  0  0  0  0  0  0  0  0  0
    8.5475   -5.5217   16.0392 C   0  0  0  0  0  0  0  0  0  0  0  0
    1.2299  -12.4979   20.6951 C   0  0  0  0  0  0  0  0  0  0  0  0
    9.0723    0.7882   24.4968 C   0  0  0  0  0  0  0  0  0  0  0  0
    5.9210   -8.9523   17.4574 C   0  0  0  0  0  0  0  0  0  0  0  0
    0.0739  -11.5022   18.9237 N   0  0  0  0  0  0  0  0  0  0  0  0
    9.3860   -5.1361   17.1084 C   0  0  0  0  0  0  0  0  0  0  0  0
    3.6323   -9.9274   17.3987 C   0  0  0  0  0  0  0  0  0  0  0  0
    0.0709  -12.2509   20.0262 C   0  0  0  0  0  0  0  0  0  0  0  0
    2.3960   -9.6895   16.8229 C   0  0  0  0  0  0  0  0  0  0  0  0
    9.1892   -7.2671   18.1559 F   0  0  0  0  0  0  0  0  0  0  0  0
    1.2520  -10.9801   18.4413 C   0  0  0  0  0  0  0  0  0  0  0  0
    7.4833   -7.6675   16.0143 N   0  0  0  0  0  0  0  0  0  0  0  0
  1  2  1  0
  1 18  1  0
  1 25  1  0
  3  9  4  0
  3 19  4  0
  4  7  4  0
  4 10  4  0
  4 33  4  0
  5 11  4  0
  5 14  4  0
  6 22  1  0
  6 34  1  0
  7 24  4  0
  8 26  1  0
  9 14  4  0
 10 29  4  0
 11 13  1  0
 11 28  4  0
 12 21  1  0
 12 26  1  0
 12 29  1  0
 14 20  1  0
 15 23  1  0
 15 34  1  0
 16 26  1  0
 16 34  1  0
 17 31  4  0
 17 33  4  0
 19 28  4  0
 19 32  1  0
 21 22  1  0
 23 28  1  0
 24 30  4  0
 27 30  4  0
 27 33  4  0
 29 31  4  0
M  END
$$$$

 Created by Python create_sdf_string function

 34 56  0  0  0  0  0  0  0  0999 V2000
    9.6325   -1.6280   24.6433 C   0  0  0  0  0  0  0  0  0  0  0  0
   10.1714   -5.8439   19.2943 C   0  0  0  0  0  0  0  0  0  0  0  0
    2.2926  -11.1054   19.2002 C   0  0  0  0  0  0  0  0  0  0  0  0
   10.6467   -3.2825   18.0151 C   0  0  0  0  0  0  0  0  0  0  0  0
    7.2929   -8.8001   15.0023 C   0  0  0  0  0  0  0  0  0  0  0  0
    2.5605  -12.1406   20.0915 C   0  0  0  0  0  0  0  0  0  0  0  0
   10.4544   -4.6777   19.7604 C   0  0  0  0  0  0  0  0  0  0  0  0
    3.5243  -10.8111   18.6378 C   0  0  0  0  0  0  0  0  0  0  0  0
   10.0564   -3.7854   16.7362 C   0  0  0  0  0  0  0  0  0  0  0  0
    4.8718   -9.1813   16.7075 C   0  0  0  0  0  0  0  0  0  0  0  0
    9.9407   -3.5204   15.7227 F   0  0  0  0  0  0  0  0  0  0  0  0
   10.8535   -3.5160   19.2226 C   0  0  0  0  0  0  0  0  0  0  0  0
    7.9113   -6.7906   15.5706 C   0  0  0  0  0  0  0  0  0  0  0  0
    6.6792   -7.9513   17.0761 C   0  0  0  0  0  0  0  0  0  0  0  0
    1.2047  -10.0666   17.1899 C   0  0  0  0  0  0  0  0  0  0  0  0
    9.2988   -0.2999   26.8778 Cl  0  0  0  0  0  0  0  0  0  0  0  0
    9.4730   -5.8303   18.3106 C   0  0  0  0  0  0  0  0  0  0  0  0
   11.6558   -2.6895   19.8903 O   0  0  0  0  0  0  0  0  0  0  0  0
    4.9569   -9.2865   15.4408 O   0  0  0  0  0  0  0  0  0  0  0  0
    5.8684   -9.1238   14.6096 C   0  0  0  0  0  0  0  0  0  0  0  0
    8.3687   -5.4607   16.2672 C   0  0  0  0  0  0  0  0  0  0  0  0
    1.2653  -12.6742   20.8129 C   0  0  0  0  0  0  0  0  0  0  0  0
    9.1782    0.8135   24.5524 C   0  0  0  0  0  0  0  0  0  0  0  0
    6.0257   -9.2524   17.7342 C   0  0  0  0  0  0  0  0  0  0  0  0
    0.0944  -11.4244   18.7971 N   0  0  0  0  0  0  0  0  0  0  0  0
    9.4265   -5.3393   17.0698 C   0  0  0  0  0  0  0  0  0  0  0  0
    3.9527   -9.9779   17.2396 C   0  0  0  0  0  0  0  0  0  0  0  0
    0.0755  -12.2240   19.8966 C   0  0  0  0  0  0  0  0  0  0  0  0
    2.2108   -9.6974   16.7882 C   0  0  0  0  0  0  0  0  0  0  0  0
    9.2655   -7.3382   18.1814 F   0  0  0  0  0  0  0  0  0  0  0  0
    1.3362  -11.1074   18.3617 C   0  0  0  0  0  0  0  0  0  0  0  0
    7.5178   -7.7449   16.3440 N   0  0  0  0  0  0  0  0  0  0  0  0
    9.0859   -0.1778   25.2856 He  0  0  0  0  0  0  0  0  0  0  0  0
    6.0074   -8.7474   19.3564 He  0  0  0  0  0  0  0  0  0  0  0  0
  1 11  3  0
  1 31  3  0
  2  7  4  0
  2 13  3  0
  2 17  4  0
  3  6  4  0
  3  8  4  0
  3 12  2  0
  3 31  4  0
  4  9  4  0
  4 12  4  0
  4 18  3  0
  5 17  2  0
  5 20  1  0
  5 24  1  0
  5 32  1  0
  6 22  4  0
  6 28  1  0
  7 12  4  0
  7 13  1  0
  8 23  4  0
  8 27  4  0
  8 28  1  0
  9 11  1  0
  9 20  2  0
  9 21  4  0
  9 26  4  0
 10 18  4  0
 10 19  1  0
 10 24  1  0
 10 27  1  0
 11 16  4  0
 12 17  3  0
 12 18  1  0
 13 16  4  0
 13 21  1  0
 13 32  1  0
 14 24  1  0
 14 32  1  0
 15 22  2  0
 15 29  4  0
 15 31  4  0
 17 23  2  0
 17 26  4  0
 17 30  1  0
 18 20  4  0
 18 26  1  0
 19 20  1  0
 21 26  1  0
 21 30  3  0
 22 28  4  0
 23 30  2  0
 25 28  4  0
 25 31  4  0
 25 32  2  0
 27 29  4  0
M  END
$$$$

 Created by Python create_sdf_string function

 34 36  0  0  0  0  0  0  0  0999 V2000
    9.1022   -0.3375   25.2959 N   0  0  0  0  0  0  0  0  0  0  0  0
    9.5948   -1.5990   24.6058 C   0  0  0  0  0  0  0  0  0  0  0  0
   10.0652   -5.8296   19.3725 C   0  0  0  0  0  0  0  0  0  0  0  0
    2.4736  -11.2507   19.0253 C   0  0  0  0  0  0  0  0  0  0  0  0
   10.6431   -3.2727   17.8829 C   0  0  0  0  0  0  0  0  0  0  0  0
    7.2852   -8.8651   15.1536 C   0  0  0  0  0  0  0  0  0  0  0  0
    2.4612  -12.0762   20.1727 C   0  0  0  0  0  0  0  0  0  0  0  0
    5.8824   -8.9567   19.0601 O   0  0  0  0  0  0  0  0  0  0  0  0
   10.6124   -4.7207   19.7886 C   0  0  0  0  0  0  0  0  0  0  0  0
    3.6220  -10.6950   18.5324 C   0  0  0  0  0  0  0  0  0  0  0  0
    9.9895   -4.0033   17.0027 C   0  0  0  0  0  0  0  0  0  0  0  0
    4.8278   -9.3475   16.8366 C   0  0  0  0  0  0  0  0  0  0  0  0
    9.9341   -3.4720   15.7237 F   0  0  0  0  0  0  0  0  0  0  0  0
   10.8873   -3.5672   19.1580 C   0  0  0  0  0  0  0  0  0  0  0  0
    8.1446   -6.6905   15.6115 C   0  0  0  0  0  0  0  0  0  0  0  0
    6.6722   -7.7689   17.1755 C   0  0  0  0  0  0  0  0  0  0  0  0
    1.2740  -10.1983   17.2779 C   0  0  0  0  0  0  0  0  0  0  0  0
    9.2543   -0.2986   26.7760 C   0  0  0  0  0  0  0  0  0  0  0  0
    9.5813   -6.0313   18.2169 C   0  0  0  0  0  0  0  0  0  0  0  0
   11.4794   -2.6306   19.8673 O   0  0  0  0  0  0  0  0  0  0  0  0
    4.8702   -9.2815   15.4816 O   0  0  0  0  0  0  0  0  0  0  0  0
    5.8912   -9.0732   14.7417 C   0  0  0  0  0  0  0  0  0  0  0  0
    8.3882   -5.4723   16.1759 C   0  0  0  0  0  0  0  0  0  0  0  0
    1.2698  -12.5843   20.6500 C   0  0  0  0  0  0  0  0  0  0  0  0
    9.1301    0.8913   24.4918 C   0  0  0  0  0  0  0  0  0  0  0  0
    6.0288   -9.0889   17.6415 C   0  0  0  0  0  0  0  0  0  0  0  0
    0.1087  -11.4990   18.8963 N   0  0  0  0  0  0  0  0  0  0  0  0
    9.3781   -5.1611   17.1836 C   0  0  0  0  0  0  0  0  0  0  0  0
    3.6247   -9.9073   17.4233 C   0  0  0  0  0  0  0  0  0  0  0  0
    0.0889  -12.2847   19.9794 C   0  0  0  0  0  0  0  0  0  0  0  0
    2.4393   -9.7000   16.7677 C   0  0  0  0  0  0  0  0  0  0  0  0
    9.2925   -7.3387   18.2055 F   0  0  0  0  0  0  0  0  0  0  0  0
    1.2550  -10.9877   18.3936 C   0  0  0  0  0  0  0  0  0  0  0  0
    7.5101   -7.7677   16.0828 N   0  0  0  0  0  0  0  0  0  0  0  0
  1  2  1  0
  1 18  1  0
  1 25  1  0
  3  9  4  0
  3 19  4  0
  4  7  4  0
  4 10  4  0
  4 33  4  0
  5 11  4  0
  5 14  4  0
  6 22  1  0
  6 34  1  0
  7 24  4  0
  8 26  1  0
  9 14  4  0
 10 29  4  0
 11 13  1  0
 11 28  4  0
 12 21  1  0
 12 26  1  0
 12 29  1  0
 14 20  1  0
 15 23  1  0
 15 34  1  0
 16 26  1  0
 16 34  1  0
 17 31  4  0
 17 33  4  0
 19 28  4  0
 19 32  1  0
 21 22  1  0
 23 28  1  0
 24 30  4  0
 27 30  4  0
 27 33  4  0
 29 31  4  0
M  END
$$$$

 Created by Python create_sdf_string function

 34 40  0  0  0  0  0  0  0  0999 V2000
    9.0729   -0.3331   25.4644 N   0  0  0  0  0  0  0  0  0  0  0  0
    9.5365   -1.6675   24.5285 C   0  0  0  0  0  0  0  0  0  0  0  0
   10.1245   -5.7395   19.5638 C   0  0  0  0  0  0  0  0  0  0  0  0
   10.5822   -3.1778   17.9762 C   0  0  0  0  0  0  0  0  0  0  0  0
    7.1996   -8.7166   15.1992 C   0  0  0  0  0  0  0  0  0  0  0  0
    2.2862  -12.1442   20.1543 C   0  0  0  0  0  0  0  0  0  0  0  0
   10.3706   -4.5139   19.7416 C   0  0  0  0  0  0  0  0  0  0  0  0
    3.5943  -10.8017   18.3815 C   0  0  0  0  0  0  0  0  0  0  0  0
   10.1039   -4.0812   17.1587 C   0  0  0  0  0  0  0  0  0  0  0  0
    4.6899   -9.3517   16.7730 C   0  0  0  0  0  0  0  0  0  0  0  0
    9.8205   -3.7411   15.6820 F   0  0  0  0  0  0  0  0  0  0  0  0
   10.7438   -3.6826   19.2471 C   0  0  0  0  0  0  0  0  0  0  0  0
    7.9591   -6.8270   15.7470 C   0  0  0  0  0  0  0  0  0  0  0  0
    6.5764   -7.9292   16.9481 C   0  0  0  0  0  0  0  0  0  0  0  0
    1.2988  -10.2521   17.4149 C   0  0  0  0  0  0  0  0  0  0  0  0
    9.3202   -0.3633   26.7365 C   0  0  0  0  0  0  0  0  0  0  0  0
    9.7607   -6.2525   18.4446 C   0  0  0  0  0  0  0  0  0  0  0  0
   11.3098   -2.5048   19.6789 O   0  0  0  0  0  0  0  0  0  0  0  0
    4.8583   -9.1535   15.6719 O   0  0  0  0  0  0  0  0  0  0  0  0
    5.5218   -9.1975   14.9021 C   0  0  0  0  0  0  0  0  0  0  0  0
    8.5155   -5.4429   16.3613 C   0  0  0  0  0  0  0  0  0  0  0  0
    1.1794  -12.7740   20.3718 C   0  0  0  0  0  0  0  0  0  0  0  0
    9.0509    0.8919   24.4770 C   0  0  0  0  0  0  0  0  0  0  0  0
    5.9844   -9.0641   17.2564 C   0  0  0  0  0  0  0  0  0  0  0  0
    0.0287  -11.4514   18.9410 N   0  0  0  0  0  0  0  0  0  0  0  0
    9.3994   -5.0313   17.1010 C   0  0  0  0  0  0  0  0  0  0  0  0
    3.6144   -9.9900   17.3708 C   0  0  0  0  0  0  0  0  0  0  0  0
    0.0271  -12.0716   20.0672 C   0  0  0  0  0  0  0  0  0  0  0  0
    9.1272   -7.1732   18.0449 F   0  0  0  0  0  0  0  0  0  0  0  0
    1.1878  -11.0652   18.3733 C   0  0  0  0  0  0  0  0  0  0  0  0
    7.3642   -7.9873   16.3638 N   0  0  0  0  0  0  0  0  0  0  0  0
    2.4581  -11.1578   18.9529 He  0  0  0  0  0  0  0  0  0  0  0  0
    5.7461   -9.1707   19.0504 He  0  0  0  0  0  0  0  0  0  0  0  0
    2.5993   -9.5876   16.5131 He  0  0  0  0  0  0  0  0  0  0  0  0
  1  2  1  0
  1 16  1  0
  1 20  3  0
  1 23  1  0
  2 13  3  0
  2 27  2  0
  3  7  4  0
  3 14  4  0
  3 17  4  0
  3 19  1  0
  4  9  4  0
  4 12  4  0
  5 20  1  0
  5 31  1  0
  6 16  3  0
  6 22  4  0
  7 12  4  0
  8 27  4  0
  9 11  1  0
  9 26  4  0
 10 19  1  0
 10 27  1  0
 12 18  1  0
 12 28  2  0
 13 21  1  0
 13 31  1  0
 14 24  2  0
 14 25  1  0
 14 31  1  0
 15 30  4  0
 16 31  1  0
 17 26  4  0
 17 29  1  0
 18 24  3  0
 19 20  4  0
 21 24  2  0
 22 28  4  0
 25 28  4  0
 25 30  4  0
 25 31  1  0
M  END
$$$$

 Created by Python create_sdf_string function

 34 36  0  0  0  0  0  0  0  0999 V2000
    9.0761   -0.3565   25.3306 N   0  0  0  0  0  0  0  0  0  0  0  0
    9.5258   -1.5951   24.5617 C   0  0  0  0  0  0  0  0  0  0  0  0
   10.0897   -5.7544   19.5032 C   0  0  0  0  0  0  0  0  0  0  0  0
    2.4230  -11.3129   18.9863 C   0  0  0  0  0  0  0  0  0  0  0  0
   10.5885   -3.2848   17.8931 C   0  0  0  0  0  0  0  0  0  0  0  0
    7.1417   -8.7972   15.1188 C   0  0  0  0  0  0  0  0  0  0  0  0
    2.3762  -12.2054   20.0655 C   0  0  0  0  0  0  0  0  0  0  0  0
    5.8252   -9.2172   18.9188 O   0  0  0  0  0  0  0  0  0  0  0  0
   10.5486   -4.6021   19.8827 C   0  0  0  0  0  0  0  0  0  0  0  0
    3.5770  -10.7708   18.5143 C   0  0  0  0  0  0  0  0  0  0  0  0
    9.9797   -4.0617   17.0301 C   0  0  0  0  0  0  0  0  0  0  0  0
    4.7184   -9.4363   16.7983 N   0  0  0  0  0  0  0  0  0  0  0  0
    9.8714   -3.6254   15.7547 F   0  0  0  0  0  0  0  0  0  0  0  0
   10.7888   -3.4759   19.1873 C   0  0  0  0  0  0  0  0  0  0  0  0
    8.1803   -6.7605   15.7025 C   0  0  0  0  0  0  0  0  0  0  0  0
    6.6381   -7.9090   17.1734 C   0  0  0  0  0  0  0  0  0  0  0  0
    1.2320  -10.2027   17.2730 C   0  0  0  0  0  0  0  0  0  0  0  0
    9.2965   -0.3368   26.7452 C   0  0  0  0  0  0  0  0  0  0  0  0
    9.5869   -6.0280   18.2880 C   0  0  0  0  0  0  0  0  0  0  0  0
   11.3130   -2.4642   19.7957 O   0  0  0  0  0  0  0  0  0  0  0  0
    4.7380   -9.2025   15.4740 O   0  0  0  0  0  0  0  0  0  0  0  0
    5.8138   -9.1428   14.7941 C   0  0  0  0  0  0  0  0  0  0  0  0
    8.4342   -5.5771   16.2420 C   0  0  0  0  0  0  0  0  0  0  0  0
    1.1896  -12.6214   20.5655 C   0  0  0  0  0  0  0  0  0  0  0  0
    9.0229    0.8707   24.5217 C   0  0  0  0  0  0  0  0  0  0  0  0
    5.8087   -8.9119   17.6057 C   0  0  0  0  0  0  0  0  0  0  0  0
    0.0438  -11.4021   18.9289 N   0  0  0  0  0  0  0  0  0  0  0  0
    9.4062   -5.2091   17.2598 C   0  0  0  0  0  0  0  0  0  0  0  0
    3.5874   -9.9751   17.4016 C   0  0  0  0  0  0  0  0  0  0  0  0
    0.0300  -12.2304   19.9741 C   0  0  0  0  0  0  0  0  0  0  0  0
    2.4071   -9.7298   16.7563 C   0  0  0  0  0  0  0  0  0  0  0  0
    9.2781   -7.2858   18.1901 F   0  0  0  0  0  0  0  0  0  0  0  0
    1.2099  -10.9710   18.3962 C   0  0  0  0  0  0  0  0  0  0  0  0
    7.3751   -7.7654   16.0961 N   0  0  0  0  0  0  0  0  0  0  0  0
  1  2  1  0
  1 18  1  0
  1 25  1  0
  3  9  4  0
  3 19  4  0
  4  7  4  0
  4 10  4  0
  4 33  4  0
  5 11  4  0
  5 14  4  0
  6 22  1  0
  6 34  1  0
  7 24  4  0
  8 26  1  0
  9 14  4  0
 10 29  4  0
 11 13  1  0
 11 28  4  0
 12 21  1  0
 12 26  1  0
 12 29  1  0
 14 20  1  0
 15 23  1  0
 15 34  1  0
 16 26  2  0
 16 34  1  0
 17 31  4  0
 17 33  4  0
 19 28  4  0
 19 32  1  0
 21 22  1  0
 23 28  1  0
 24 30  4  0
 27 30  4  0
 27 33  4  0
 29 31  4  0
M  END
$$$$

 Created by Python create_sdf_string function

 34 52  0  0  0  0  0  0  0  0999 V2000
    9.2156   -0.2511   25.2120 N   0  0  0  0  0  0  0  0  0  0  0  0
    9.6081   -1.4889   24.5527 C   0  0  0  0  0  0  0  0  0  0  0  0
   10.0742   -5.6724   19.3935 C   0  0  0  0  0  0  0  0  0  0  0  0
    2.5825  -11.4078   18.9785 C   0  0  0  0  0  0  0  0  0  0  0  0
   10.5222   -3.1263   17.6325 C   0  0  0  0  0  0  0  0  0  0  0  0
    7.2307   -8.8311   15.1832 C   0  0  0  0  0  0  0  0  0  0  0  0
    2.4852  -12.1780   20.1170 C   0  0  0  0  0  0  0  0  0  0  0  0
    5.7446   -9.2254   18.8300 O   0  0  0  0  0  0  0  0  0  0  0  0
   10.6137   -4.5694   19.7706 C   0  0  0  0  0  0  0  0  0  0  0  0
    3.7595  -10.9004   18.5399 C   0  0  0  0  0  0  0  0  0  0  0  0
   10.0289   -4.1090   17.1834 C   0  0  0  0  0  0  0  0  0  0  0  0
    4.9715   -9.4717   16.9399 N   0  0  0  0  0  0  0  0  0  0  0  0
    9.8756   -3.6600   15.5457 F   0  0  0  0  0  0  0  0  0  0  0  0
   10.8111   -3.4707   19.2812 C   0  0  0  0  0  0  0  0  0  0  0  0
    6.8709   -7.9549   17.2661 C   0  0  0  0  0  0  0  0  0  0  0  0
    1.2840  -10.0317   17.3760 C   0  0  0  0  0  0  0  0  0  0  0  0
    8.8936   -0.1476   26.6693 C   0  0  0  0  0  0  0  0  0  0  0  0
    9.4777   -5.9057   18.3501 C   0  0  0  0  0  0  0  0  0  0  0  0
   11.3040   -2.4488   19.9414 O   0  0  0  0  0  0  0  0  0  0  0  0
    4.7269   -9.4292   15.4275 O   0  0  0  0  0  0  0  0  0  0  0  0
    5.8736   -9.1523   15.1587 C   0  0  0  0  0  0  0  0  0  0  0  0
    8.6315   -5.6529   16.2097 C   0  0  0  0  0  0  0  0  0  0  0  0
    1.3511  -12.6320   20.4368 C   0  0  0  0  0  0  0  0  0  0  0  0
    8.9813    1.0441   24.5357 C   0  0  0  0  0  0  0  0  0  0  0  0
    5.9877   -9.3011   17.6142 C   0  0  0  0  0  0  0  0  0  0  0  0
    0.1332  -11.2804   18.9654 I   0  0  0  0  0  0  0  0  0  0  0  0
    9.2893   -5.1104   17.2681 C   0  0  0  0  0  0  0  0  0  0  0  0
    3.5338   -9.9919   17.4148 C   0  0  0  0  0  0  0  0  0  0  0  0
   -0.1643  -12.0626   19.9843 C   0  0  0  0  0  0  0  0  0  0  0  0
    2.6876   -9.5546   16.8786 C   0  0  0  0  0  0  0  0  0  0  0  0
    9.1823   -7.2250   18.3344 F   0  0  0  0  0  0  0  0  0  0  0  0
    1.2913  -11.1901   18.4670 C   0  0  0  0  0  0  0  0  0  0  0  0
    7.7007   -7.7819   15.8897 N   0  0  0  0  0  0  0  0  0  0  0  0
    8.2249   -6.8612   15.7121 He  0  0  0  0  0  0  0  0  0  0  0  0
  1  2  1  0
  1  6  3  0
  1 17  1  0
  1 21  1  0
  1 24  1  0
  3  9  4  0
  3 18  4  0
  3 33  1  0
  4  7  4  0
  4  8  2  0
  4 32  4  0
  5 11  4  0
  5 14  4  0
  5 25  3  0
  6 10  3  0
  6 21  1  0
  6 23  3  0
  6 33  1  0
  7 17  3  0
  7 23  1  0
  8 25  1  0
  8 26  4  0
  9 19  1  0
 10 28  4  0
 11 13  1  0
 11 21  4  0
 11 23  4  0
 11 27  4  0
 12 18  2  0
 12 20  2  0
 12 25  1  0
 12 28  1  0
 12 33  2  0
 13 18  2  0
 13 30  4  0
 14 19  1  0
 15 17  2  0
 15 25  4  0
 15 32  2  0
 15 33  1  0
 16 30  2  0
 16 32  4  0
 18 27  4  0
 18 28  3  0
 20 21  1  0
 22 27  1  0
 23 26  3  0
 23 29  3  0
 24 27  3  0
 26 27  4  0
 26 32  4  0
 30 31  4  0
M  END
$$$$

 Created by Python create_sdf_string function

 34 36  0  0  0  0  0  0  0  0999 V2000
    9.2028   -0.2389   25.2382 N   0  0  0  0  0  0  0  0  0  0  0  0
    9.5942   -1.4531   24.5354 C   0  0  0  0  0  0  0  0  0  0  0  0
   10.0396   -5.7152   19.4225 C   0  0  0  0  0  0  0  0  0  0  0  0
    2.4789  -11.3499   19.0206 C   0  0  0  0  0  0  0  0  0  0  0  0
   10.5763   -3.2097   17.8423 C   0  0  0  0  0  0  0  0  0  0  0  0
    7.2477   -8.8706   15.1321 C   0  0  0  0  0  0  0  0  0  0  0  0
    2.4151  -12.2810   20.0906 C   0  0  0  0  0  0  0  0  0  0  0  0
    5.8702   -9.2762   18.9967 O   0  0  0  0  0  0  0  0  0  0  0  0
   10.5888   -4.5635   19.8138 C   0  0  0  0  0  0  0  0  0  0  0  0
    3.6902  -10.8514   18.5015 C   0  0  0  0  0  0  0  0  0  0  0  0
    9.9708   -4.0221   16.9899 C   0  0  0  0  0  0  0  0  0  0  0  0
    4.8750   -9.4871   16.8633 N   0  0  0  0  0  0  0  0  0  0  0  0
    9.8848   -3.5610   15.6982 F   0  0  0  0  0  0  0  0  0  0  0  0
   10.8155   -3.4483   19.1511 C   0  0  0  0  0  0  0  0  0  0  0  0
    8.3804   -6.8613   15.7217 C   0  0  0  0  0  0  0  0  0  0  0  0
    6.8539   -7.9618   17.2577 C   0  0  0  0  0  0  0  0  0  0  0  0
    1.3369  -10.0913   17.3823 C   0  0  0  0  0  0  0  0  0  0  0  0
    8.8994   -0.2183   26.6552 C   0  0  0  0  0  0  0  0  0  0  0  0
    9.5447   -5.9618   18.3000 C   0  0  0  0  0  0  0  0  0  0  0  0
   11.3476   -2.4475   19.8679 O   0  0  0  0  0  0  0  0  0  0  0  0
    4.8662   -9.4188   15.5030 O   0  0  0  0  0  0  0  0  0  0  0  0
    5.9604   -9.1405   14.8360 C   0  0  0  0  0  0  0  0  0  0  0  0
    8.4800   -5.6041   16.1975 C   0  0  0  0  0  0  0  0  0  0  0  0
    1.2023  -12.6558   20.6067 C   0  0  0  0  0  0  0  0  0  0  0  0
    8.9834    1.0028   24.4746 C   0  0  0  0  0  0  0  0  0  0  0  0
    6.0252   -9.1234   17.6490 C   0  0  0  0  0  0  0  0  0  0  0  0
    0.1029  -11.3657   18.9555 N   0  0  0  0  0  0  0  0  0  0  0  0
    9.4122   -5.1868   17.2236 C   0  0  0  0  0  0  0  0  0  0  0  0
    3.7242   -9.9801   17.4371 C   0  0  0  0  0  0  0  0  0  0  0  0
    0.0551  -12.1957   20.0412 C   0  0  0  0  0  0  0  0  0  0  0  0
    2.5216   -9.6443   16.8553 C   0  0  0  0  0  0  0  0  0  0  0  0
    9.1385   -7.2184   18.3768 F   0  0  0  0  0  0  0  0  0  0  0  0
    1.2893  -10.9393   18.4653 C   0  0  0  0  0  0  0  0  0  0  0  0
    7.6137   -7.8831   16.1041 N   0  0  0  0  0  0  0  0  0  0  0  0
  1  2  1  0
  1 18  1  0
  1 25  1  0
  3  9  4  0
  3 19  4  0
  4  7  4  0
  4 10  4  0
  4 33  4  0
  5 11  4  0
  5 14  4  0
  6 22  1  0
  6 34  1  0
  7 24  4  0
  8 26  1  0
  9 14  4  0
 10 29  4  0
 11 13  1  0
 11 28  4  0
 12 21  1  0
 12 26  1  0
 12 29  1  0
 14 20  1  0
 15 23  1  0
 15 34  1  0
 16 26  1  0
 16 34  1  0
 17 31  4  0
 17 33  4  0
 19 28  4  0
 19 32  1  0
 21 22  1  0
 23 28  1  0
 24 30  4  0
 27 30  4  0
 27 33  4  0
 29 31  4  0
M  END
$$$$

 Created by Python create_sdf_string function

 34 63  0  0  0  0  0  0  0  0999 V2000
    8.9472   -0.1164   25.4006 N   0  0  0  0  0  0  0  0  0  0  0  0
    9.5886   -1.5738   24.5907 C   0  0  0  0  0  0  0  0  0  0  0  0
   10.2558   -5.4345   19.5933 C   0  0  0  0  0  0  0  0  0  0  0  0
    2.5321  -11.2193   18.9919 C   0  0  0  0  0  0  0  0  0  0  0  0
   10.4721   -3.1701   17.7275 C   0  0  0  0  0  0  0  0  0  0  0  0
    7.3014   -8.6965   15.2438 C   0  0  0  0  0  0  0  0  0  0  0  0
    2.2686  -12.1952   20.0406 C   0  0  0  0  0  0  0  0  0  0  0  0
    5.5982   -9.3665   19.1828 O   0  0  0  0  0  0  0  0  0  0  0  0
   10.8131   -4.5572   19.8863 C   0  0  0  0  0  0  0  0  0  0  0  0
    3.5188  -10.7820   18.5425 C   0  0  0  0  0  0  0  0  0  0  0  0
    9.8376   -4.0267   16.9049 C   0  0  0  0  0  0  0  0  0  0  0  0
    5.0204   -9.1905   16.6738 N   0  0  0  0  0  0  0  0  0  0  0  0
    9.9529   -3.5150   15.8106 F   0  0  0  0  0  0  0  0  0  0  0  0
   10.8822   -3.4890   19.3068 C   0  0  0  0  0  0  0  0  0  0  0  0
    8.3413   -6.7372   15.9183 C   0  0  0  0  0  0  0  0  0  0  0  0
    6.8962   -8.0645   17.0194 C   0  0  0  0  0  0  0  0  0  0  0  0
    1.3547  -10.1698   17.4554 C   0  0  0  0  0  0  0  0  0  0  0  0
    9.3650   -6.0667   18.3972 C   0  0  0  0  0  0  0  0  0  0  0  0
   11.3912   -2.5490   19.6638 O   0  0  0  0  0  0  0  0  0  0  0  0
    4.7917   -9.5396   15.7596 O   0  0  0  0  0  0  0  0  0  0  0  0
    5.8795   -8.8507   14.7993 N   0  0  0  0  0  0  0  0  0  0  0  0
    8.3542   -5.7287   16.3098 C   0  0  0  0  0  0  0  0  0  0  0  0
    1.2847  -12.6680   20.8101 C   0  0  0  0  0  0  0  0  0  0  0  0
    5.7810   -9.0645   17.5295 C   0  0  0  0  0  0  0  0  0  0  0  0
    0.1022  -11.3835   19.0247 N   0  0  0  0  0  0  0  0  0  0  0  0
    9.3528   -5.3605   17.2162 C   0  0  0  0  0  0  0  0  0  0  0  0
    3.6537   -9.9613   17.6720 C   0  0  0  0  0  0  0  0  0  0  0  0
    0.0389  -12.3681   20.1276 C   0  0  0  0  0  0  0  0  0  0  0  0
    2.5681   -9.7995   16.7138 C   0  0  0  0  0  0  0  0  0  0  0  0
    9.1779   -6.9508   18.5270 F   0  0  0  0  0  0  0  0  0  0  0  0
    1.2832  -10.6340   18.3946 C   0  0  0  0  0  0  0  0  0  0  0  0
    7.6372   -7.9038   15.7629 N   0  0  0  0  0  0  0  0  0  0  0  0
    8.9855   -0.2911   26.5744 He  0  0  0  0  0  0  0  0  0  0  0  0
    8.9177    1.2057   24.6361 He  0  0  0  0  0  0  0  0  0  0  0  0
  1  2  1  0
  1  4  2  0
  1 10  2  0
  1 28  1  0
  2 10  3  0
  2 13  3  0
  2 18  4  0
  3  9  4  0
  3 18  4  0
  3 32  1  0
  4  7  4  0
  4  8  1  0
  4 10  4  0
  4 12  1  0
  4 31  4  0
  5 11  4  0
  5 14  4  0
  5 29  3  0
  6 21  1  0
  6 32  1  0
  7 10  4  0
  7 13  4  0
  7 19  4  0
  7 23  4  0
  8 22  2  0
  8 24  1  0
  8 26  2  0
  8 30  4  0
  9 12  1  0
 10 27  4  0
 10 29  1  0
 11 13  1  0
 11 25  2  0
 11 26  4  0
 12 14  3  0
 12 24  1  0
 12 27  1  0
 14 19  1  0
 15 18  1  0
 15 22  2  0
 15 25  1  0
 15 27  1  0
 15 32  1  0
 16 19  1  0
 16 32  1  0
 17 29  4  0
 17 31  4  0
 18 19  3  0
 18 23  1  0
 18 26  4  0
 18 30  1  0
 19 22  4  0
 19 25  1  0
 19 28  4  0
 20 21  1  0
 20 28  3  0
 22 26  1  0
 23 25  1  0
 23 28  4  0
 25 27  2  0
 25 28  4  0
 25 31  4  0
 27 29  4  0
M  END
$$$$

 Created by Python create_sdf_string function

 34 36  0  0  0  0  0  0  0  0999 V2000
    9.0093   -0.2114   25.2643 N   0  0  0  0  0  0  0  0  0  0  0  0
    9.5403   -1.4146   24.5266 C   0  0  0  0  0  0  0  0  0  0  0  0
   10.1338   -5.7177   19.5187 C   0  0  0  0  0  0  0  0  0  0  0  0
    2.4575  -11.2797   19.0611 C   0  0  0  0  0  0  0  0  0  0  0  0
   10.5891   -3.2293   17.8407 C   0  0  0  0  0  0  0  0  0  0  0  0
    7.2317   -8.8250   15.0792 C   0  0  0  0  0  0  0  0  0  0  0  0
    2.4396  -12.1390   20.1499 C   0  0  0  0  0  0  0  0  0  0  0  0
    5.7787   -9.2487   19.0086 O   0  0  0  0  0  0  0  0  0  0  0  0
   10.6777   -4.5667   19.8566 C   0  0  0  0  0  0  0  0  0  0  0  0
    3.6063  -10.7409   18.5587 C   0  0  0  0  0  0  0  0  0  0  0  0
    9.9276   -4.0218   17.0126 C   0  0  0  0  0  0  0  0  0  0  0  0
    4.8393   -9.4326   16.8293 N   0  0  0  0  0  0  0  0  0  0  0  0
    9.8085   -3.5429   15.7200 F   0  0  0  0  0  0  0  0  0  0  0  0
   10.8778   -3.4532   19.1292 C   0  0  0  0  0  0  0  0  0  0  0  0
    8.4020   -6.8427   15.7799 C   0  0  0  0  0  0  0  0  0  0  0  0
    6.8296   -7.9351   17.2396 C   0  0  0  0  0  0  0  0  0  0  0  0
    1.2508  -10.1507   17.3765 C   0  0  0  0  0  0  0  0  0  0  0  0
    8.9281   -0.2837   26.7071 C   0  0  0  0  0  0  0  0  0  0  0  0
    9.5647   -5.9639   18.4241 C   0  0  0  0  0  0  0  0  0  0  0  0
   11.4518   -2.4363   19.7601 O   0  0  0  0  0  0  0  0  0  0  0  0
    4.9019   -9.4476   15.4944 O   0  0  0  0  0  0  0  0  0  0  0  0
    5.8454   -8.9005   14.7708 C   0  0  0  0  0  0  0  0  0  0  0  0
    8.5192   -5.7056   16.2834 C   0  0  0  0  0  0  0  0  0  0  0  0
    1.2412  -12.6453   20.6640 C   0  0  0  0  0  0  0  0  0  0  0  0
    8.8836    1.0429   24.5669 C   0  0  0  0  0  0  0  0  0  0  0  0
    5.9766   -9.0569   17.6191 C   0  0  0  0  0  0  0  0  0  0  0  0
    0.0541  -11.4111   19.0437 N   0  0  0  0  0  0  0  0  0  0  0  0
    9.3675   -5.2096   17.2773 C   0  0  0  0  0  0  0  0  0  0  0  0
    3.6554   -9.9622   17.4728 C   0  0  0  0  0  0  0  0  0  0  0  0
    0.0634  -12.2315   20.1050 C   0  0  0  0  0  0  0  0  0  0  0  0
    2.4515   -9.7034   16.8647 C   0  0  0  0  0  0  0  0  0  0  0  0
    9.1536   -7.2015   18.5276 F   0  0  0  0  0  0  0  0  0  0  0  0
    1.2434  -10.9643   18.4887 C   0  0  0  0  0  0  0  0  0  0  0  0
    7.5769   -7.8498   16.0728 N   0  0  0  0  0  0  0  0  0  0  0  0
  1  2  1  0
  1 18  1  0
  1 25  1  0
  3  9  4  0
  3 19  4  0
  4  7  4  0
  4 10  4  0
  4 33  4  0
  5 11  4  0
  5 14  4  0
  6 22  1  0
  6 34  1  0
  7 24  4  0
  8 26  1  0
  9 14  4  0
 10 29  4  0
 11 13  1  0
 11 28  4  0
 12 21  1  0
 12 26  1  0
 12 29  1  0
 14 20  1  0
 15 23  2  0
 15 34  1  0
 16 26  1  0
 16 34  1  0
 17 31  4  0
 17 33  4  0
 19 28  4  0
 19 32  1  0
 21 22  1  0
 23 28  1  0
 24 30  4  0
 27 30  4  0
 27 33  4  0
 29 31  4  0
M  END
$$$$

 Created by Python create_sdf_string function

 34 52  0  0  0  0  0  0  0  0999 V2000
    9.0344   -0.2317   25.3083 N   0  0  0  0  0  0  0  0  0  0  0  0
   10.2397   -5.6321   19.3585 C   0  0  0  0  0  0  0  0  0  0  0  0
    2.2470  -11.2887   19.0006 C   0  0  0  0  0  0  0  0  0  0  0  0
   10.5619   -3.2318   17.9968 C   0  0  0  0  0  0  0  0  0  0  0  0
    7.2008   -8.8642   15.1149 C   0  0  0  0  0  0  0  0  0  0  0  0
    2.5917  -12.1070   20.0102 C   0  0  0  0  0  0  0  0  0  0  0  0
    5.7222   -9.1275   18.8982 O   0  0  0  0  0  0  0  0  0  0  0  0
   10.6177   -4.5275   19.8558 C   0  0  0  0  0  0  0  0  0  0  0  0
    3.7305  -10.6689   18.3864 C   0  0  0  0  0  0  0  0  0  0  0  0
    9.8970   -4.0974   16.7864 C   0  0  0  0  0  0  0  0  0  0  0  0
    4.7991   -9.5385   16.8942 N   0  0  0  0  0  0  0  0  0  0  0  0
    9.6866   -3.5746   15.7716 F   0  0  0  0  0  0  0  0  0  0  0  0
   10.8491   -3.5205   19.1091 C   0  0  0  0  0  0  0  0  0  0  0  0
    8.3610   -6.7800   15.7747 C   0  0  0  0  0  0  0  0  0  0  0  0
    6.7790   -7.9981   17.3084 C   0  0  0  0  0  0  0  0  0  0  0  0
    1.2711  -10.1826   17.4285 C   0  0  0  0  0  0  0  0  0  0  0  0
    9.0034   -0.2243   26.6686 C   0  0  0  0  0  0  0  0  0  0  0  0
    9.5065   -5.8517   18.3715 S   0  0  0  0  0  0  0  0  0  0  0  0
   11.6065   -2.5144   19.7021 O   0  0  0  0  0  0  0  0  0  0  0  0
    4.7416   -9.5652   15.5679 O   0  0  0  0  0  0  0  0  0  0  0  0
    5.8882   -8.7217   14.8290 C   0  0  0  0  0  0  0  0  0  0  0  0
    8.6427   -5.3052   16.3838 C   0  0  0  0  0  0  0  0  0  0  0  0
    1.2324  -12.5694   20.6839 C   0  0  0  0  0  0  0  0  0  0  0  0
    6.0030   -9.1855   17.8815 C   0  0  0  0  0  0  0  0  0  0  0  0
    0.1635  -11.4665   19.0425 N   0  0  0  0  0  0  0  0  0  0  0  0
    9.1603   -5.2065   17.2729 C   0  0  0  0  0  0  0  0  0  0  0  0
    3.6616   -9.8987   17.6282 C   0  0  0  0  0  0  0  0  0  0  0  0
   -0.0330  -12.2378   20.1092 C   0  0  0  0  0  0  0  0  0  0  0  0
    2.4864   -9.7048   16.6767 C   0  0  0  0  0  0  0  0  0  0  0  0
    9.4818   -7.0943   18.5380 F   0  0  0  0  0  0  0  0  0  0  0  0
    1.0643  -11.0406   18.7167 C   0  0  0  0  0  0  0  0  0  0  0  0
    9.6006   -1.4698   24.3935 He  0  0  0  0  0  0  0  0  0  0  0  0
    8.9449    1.1335   24.3814 He  0  0  0  0  0  0  0  0  0  0  0  0
    7.5907   -8.0015   15.8505 He  0  0  0  0  0  0  0  0  0  0  0  0
  1 21  1  0
  2  8  4  0
  2 14  2  0
  2 18  4  0
  3  6  4  0
  3  9  4  0
  3 15  4  0
  3 31  4  0
  4  5  4  0
  4 10  4  0
  4 12  3  0
  4 13  4  0
  4 31  1  0
  5 21  1  0
  6 23  4  0
  7 22  4  0
  7 24  1  0
  8 13  4  0
  8 17  4  0
  9 12  1  0
  9 27  4  0
 10 12  1  0
 10 22  3  0
 10 26  4  0
 11 19  4  0
 11 20  1  0
 11 24  1  0
 11 27  1  0
 13 19  1  0
 13 26  1  0
 13 31  2  0
 14 21  4  0
 14 22  2  0
 15 17  4  0
 15 29  4  0
 16 23  1  0
 16 29  4  0
 16 31  4  0
 17 20  4  0
 17 21  4  0
 17 26  1  0
 17 27  2  0
 18 26  4  0
 18 30  1  0
 20 21  1  0
 21 28  2  0
 22 24  1  0
 23 28  4  0
 25 28  4  0
 26 28  3  0
 26 29  3  0
 27 29  4  0
M  END
$$$$

 Created by Python create_sdf_string function

 34 36  0  0  0  0  0  0  0  0999 V2000
    9.0689   -0.2346   25.1561 N   0  0  0  0  0  0  0  0  0  0  0  0
    9.5714   -1.4063   24.3823 C   0  0  0  0  0  0  0  0  0  0  0  0
   10.1091   -5.7016   19.4727 C   0  0  0  0  0  0  0  0  0  0  0  0
    2.4633  -11.2938   19.0634 C   0  0  0  0  0  0  0  0  0  0  0  0
   10.5653   -3.2042   17.8287 C   0  0  0  0  0  0  0  0  0  0  0  0
    7.2023   -8.8427   15.1147 C   0  0  0  0  0  0  0  0  0  0  0  0
    2.4557  -12.1604   20.1843 C   0  0  0  0  0  0  0  0  0  0  0  0
    5.8394   -9.1705   19.0252 O   0  0  0  0  0  0  0  0  0  0  0  0
   10.6975   -4.5598   19.8142 C   0  0  0  0  0  0  0  0  0  0  0  0
    3.6129  -10.7559   18.5443 C   0  0  0  0  0  0  0  0  0  0  0  0
    9.8800   -3.9944   17.0220 C   0  0  0  0  0  0  0  0  0  0  0  0
    4.8165   -9.4634   16.8777 N   0  0  0  0  0  0  0  0  0  0  0  0
    9.6639   -3.4975   15.7702 F   0  0  0  0  0  0  0  0  0  0  0  0
   10.9091   -3.4352   19.1117 C   0  0  0  0  0  0  0  0  0  0  0  0
    8.3802   -6.8202   15.7739 C   0  0  0  0  0  0  0  0  0  0  0  0
    6.7890   -7.9752   17.2938 C   0  0  0  0  0  0  0  0  0  0  0  0
    1.2412  -10.1699   17.3823 C   0  0  0  0  0  0  0  0  0  0  0  0
    8.9507   -0.2743   26.5747 C   0  0  0  0  0  0  0  0  0  0  0  0
    9.5988   -5.9816   18.3567 C   0  0  0  0  0  0  0  0  0  0  0  0
   11.4917   -2.4739   19.7302 O   0  0  0  0  0  0  0  0  0  0  0  0
    4.8700   -9.4937   15.4877 O   0  0  0  0  0  0  0  0  0  0  0  0
    5.7404   -8.7156   14.8520 C   0  0  0  0  0  0  0  0  0  0  0  0
    8.4809   -5.6312   16.2268 C   0  0  0  0  0  0  0  0  0  0  0  0
    1.2562  -12.6185   20.6913 C   0  0  0  0  0  0  0  0  0  0  0  0
    8.9213    1.0186   24.4077 C   0  0  0  0  0  0  0  0  0  0  0  0
    6.0019   -9.1195   17.6593 C   0  0  0  0  0  0  0  0  0  0  0  0
    0.0547  -11.4447   19.0411 N   0  0  0  0  0  0  0  0  0  0  0  0
    9.3891   -5.1895   17.2627 C   0  0  0  0  0  0  0  0  0  0  0  0
    3.6408   -9.9827   17.4619 C   0  0  0  0  0  0  0  0  0  0  0  0
    0.0662  -12.2294   20.1103 C   0  0  0  0  0  0  0  0  0  0  0  0
    2.4300   -9.7121   16.8634 C   0  0  0  0  0  0  0  0  0  0  0  0
    9.2991   -7.2237   18.4634 F   0  0  0  0  0  0  0  0  0  0  0  0
    1.2252  -10.9861   18.4957 C   0  0  0  0  0  0  0  0  0  0  0  0
    7.6369   -7.8860   16.1293 N   0  0  0  0  0  0  0  0  0  0  0  0
  1  2  1  0
  1 18  1  0
  1 25  1  0
  3  9  4  0
  3 19  4  0
  4  7  4  0
  4 10  4  0
  4 33  4  0
  5 11  4  0
  5 14  4  0
  6 22  1  0
  6 34  1  0
  7 24  4  0
  8 26  1  0
  9 14  4  0
 10 29  4  0
 11 13  1  0
 11 28  4  0
 12 21  1  0
 12 26  1  0
 12 29  1  0
 14 20  1  0
 15 23  2  0
 15 34  1  0
 16 26  1  0
 16 34  1  0
 17 31  4  0
 17 33  4  0
 19 28  4  0
 19 32  1  0
 21 22  1  0
 23 28  1  0
 24 30  4  0
 27 30  4  0
 27 33  4  0
 29 31  4  0
M  END
$$$$

 Created by Python create_sdf_string function

 34 50  0  0  0  0  0  0  0  0999 V2000
    9.0396   -0.2280   25.0220 N   0  0  0  0  0  0  0  0  0  0  0  0
    9.6358   -1.3311   24.1038 C   0  0  0  0  0  0  0  0  0  0  0  0
    2.4022  -11.4689   19.2538 C   0  0  0  0  0  0  0  0  0  0  0  0
   10.6404   -3.1695   17.9938 C   0  0  0  0  0  0  0  0  0  0  0  0
    7.1929   -8.7815   15.2315 C   0  0  0  0  0  0  0  0  0  0  0  0
    2.6431  -11.9989   20.3323 C   0  0  0  0  0  0  0  0  0  0  0  0
    6.1406   -9.3452   18.9246 O   0  0  0  0  0  0  0  0  0  0  0  0
   10.7602   -4.5830   19.8175 C   0  0  0  0  0  0  0  0  0  0  0  0
    3.7041  -10.7338   18.4888 C   0  0  0  0  0  0  0  0  0  0  0  0
    9.8334   -3.9262   16.8877 C   0  0  0  0  0  0  0  0  0  0  0  0
    4.5787   -9.7170   16.5977 N   0  0  0  0  0  0  0  0  0  0  0  0
    9.5954   -3.5803   15.8671 F   0  0  0  0  0  0  0  0  0  0  0  0
   10.7798   -3.4345   19.1119 C   0  0  0  0  0  0  0  0  0  0  0  0
    8.3571   -6.8224   15.8631 C   0  0  0  0  0  0  0  0  0  0  0  0
    6.8352   -7.9502   17.1698 C   0  0  0  0  0  0  0  0  0  0  0  0
    1.1687  -10.1599   17.4614 C   0  0  0  0  0  0  0  0  0  0  0  0
    8.7273   -0.2781   26.3695 C   0  0  0  0  0  0  0  0  0  0  0  0
    9.5139   -5.9296   18.2794 C   0  0  0  0  0  0  0  0  0  0  0  0
   11.6325   -2.4631   19.7472 O   0  0  0  0  0  0  0  0  0  0  0  0
    4.8659   -9.3708   15.4388 Br  0  0  0  0  0  0  0  0  0  0  0  0
    5.6332   -8.3935   14.7812 C   0  0  0  0  0  0  0  0  0  0  0  0
    8.5517   -5.5096   16.2135 C   0  0  0  0  0  0  0  0  0  0  0  0
    1.1700  -12.2587   20.7519 C   0  0  0  0  0  0  0  0  0  0  0  0
    9.0163    1.0199   24.4527 C   0  0  0  0  0  0  0  0  0  0  0  0
    6.0392   -9.0282   17.7031 F   0  0  0  0  0  0  0  0  0  0  0  0
    0.0587  -11.5183   19.0245 N   0  0  0  0  0  0  0  0  0  0  0  0
    3.6758   -9.8488   17.2921 C   0  0  0  0  0  0  0  0  0  0  0  0
    0.2963  -12.2901   20.1638 C   0  0  0  0  0  0  0  0  0  0  0  0
    2.5877   -9.6929   16.8401 C   0  0  0  0  0  0  0  0  0  0  0  0
    9.4727   -6.9519   18.3898 C   0  0  0  0  0  0  0  0  0  0  0  0
    1.3285  -11.0509   18.4723 C   0  0  0  0  0  0  0  0  0  0  0  0
    7.6109   -7.7963   16.0651 N   0  0  0  0  0  0  0  0  0  0  0  0
   10.1555   -5.6744   19.5460 He  0  0  0  0  0  0  0  0  0  0  0  0
    9.4509   -5.1533   17.2906 He  0  0  0  0  0  0  0  0  0  0  0  0
  1  2  1  0
  1  3  3  0
  1 17  1  0
  1 24  2  0
  1 25  4  0
  2 22  1  0
  2 28  2  0
  3  4  1  0
  3  6  4  0
  3  9  4  0
  3 31  4  0
  4 10  4  0
  4 13  4  0
  4 29  1  0
  5 21  4  0
  5 32  1  0
  6  7  1  0
  6 23  4  0
  6 31  4  0
  8 13  4  0
  8 16  3  0
  8 27  1  0
  9 18  2  0
  9 27  4  0
 10 12  3  0
 10 22  1  0
 11 18  3  0
 11 20  1  0
 11 27  1  0
 11 28  2  0
 13 19  1  0
 13 22  1  0
 14 19  3  0
 14 22  1  0
 14 26  1  0
 15 17  2  0
 15 25  1  0
 15 32  1  0
 16 29  4  0
 16 30  3  0
 16 31  4  0
 17 32  4  0
 18 30  1  0
 20 21  1  0
 20 29  1  0
 22 25  4  0
 23 28  4  0
 26 28  4  0
 26 31  4  0
 27 29  4  0
M  END
$$$$

 Created by Python create_sdf_string function

 34 36  0  0  0  0  0  0  0  0999 V2000
    9.0525   -0.1793   25.0045 N   0  0  0  0  0  0  0  0  0  0  0  0
    9.6236   -1.3271   24.1796 C   0  0  0  0  0  0  0  0  0  0  0  0
   10.1430   -5.7463   19.4976 C   0  0  0  0  0  0  0  0  0  0  0  0
    2.5319  -11.2459   19.1179 C   0  0  0  0  0  0  0  0  0  0  0  0
   10.5778   -3.1815   17.8818 C   0  0  0  0  0  0  0  0  0  0  0  0
    7.1525   -8.7068   15.0897 C   0  0  0  0  0  0  0  0  0  0  0  0
    2.5148  -12.0088   20.3045 C   0  0  0  0  0  0  0  0  0  0  0  0
    6.0372   -9.3648   18.8837 O   0  0  0  0  0  0  0  0  0  0  0  0
   10.7095   -4.5498   19.8744 C   0  0  0  0  0  0  0  0  0  0  0  0
    3.6830  -10.7633   18.5209 C   0  0  0  0  0  0  0  0  0  0  0  0
    9.8845   -3.9469   17.0354 C   0  0  0  0  0  0  0  0  0  0  0  0
    4.8266   -9.4298   16.8213 N   0  0  0  0  0  0  0  0  0  0  0  0
    9.6411   -3.4524   15.8184 F   0  0  0  0  0  0  0  0  0  0  0  0
   10.9328   -3.4230   19.1546 C   0  0  0  0  0  0  0  0  0  0  0  0
    8.4913   -6.8568   15.8156 C   0  0  0  0  0  0  0  0  0  0  0  0
    6.7528   -7.8751   17.2565 C   0  0  0  0  0  0  0  0  0  0  0  0
    1.2863  -10.2192   17.3943 C   0  0  0  0  0  0  0  0  0  0  0  0
    8.7118   -0.3892   26.4024 C   0  0  0  0  0  0  0  0  0  0  0  0
    9.6364   -5.9621   18.3334 C   0  0  0  0  0  0  0  0  0  0  0  0
   11.5269   -2.4622   19.7577 O   0  0  0  0  0  0  0  0  0  0  0  0
    4.8394   -9.3593   15.4294 C   0  0  0  0  0  0  0  0  0  0  0  0
    5.6835   -8.4933   14.8299 C   0  0  0  0  0  0  0  0  0  0  0  0
    8.5031   -5.5780   16.2290 C   0  0  0  0  0  0  0  0  0  0  0  0
    1.3225  -12.4473   20.8155 C   0  0  0  0  0  0  0  0  0  0  0  0
    8.9775    1.0728   24.4065 C   0  0  0  0  0  0  0  0  0  0  0  0
    5.9274   -9.0200   17.6389 C   0  0  0  0  0  0  0  0  0  0  0  0
    0.1510  -11.5246   19.0296 N   0  0  0  0  0  0  0  0  0  0  0  0
    9.3875   -5.1662   17.2520 C   0  0  0  0  0  0  0  0  0  0  0  0
    3.6767   -9.9848   17.4186 C   0  0  0  0  0  0  0  0  0  0  0  0
    0.1503  -12.2087   20.1695 C   0  0  0  0  0  0  0  0  0  0  0  0
    2.4698   -9.7294   16.8689 C   0  0  0  0  0  0  0  0  0  0  0  0
    9.3797   -7.2638   18.4238 F   0  0  0  0  0  0  0  0  0  0  0  0
    1.2990  -10.9996   18.5168 C   0  0  0  0  0  0  0  0  0  0  0  0
    7.5931   -7.8160   16.1491 N   0  0  0  0  0  0  0  0  0  0  0  0
  1  2  1  0
  1 18  1  0
  1 25  1  0
  3  9  4  0
  3 19  4  0
  4  7  4  0
  4 10  4  0
  4 33  4  0
  5 11  4  0
  5 14  4  0
  6 22  1  0
  6 34  1  0
  7 24  4  0
  8 26  2  0
  9 14  4  0
 10 29  4  0
 11 13  1  0
 11 28  4  0
 12 21  1  0
 12 26  1  0
 12 29  1  0
 14 20  1  0
 15 23  1  0
 15 34  1  0
 16 26  1  0
 16 34  1  0
 17 31  4  0
 17 33  4  0
 19 28  4  0
 19 32  1  0
 21 22  1  0
 23 28  1  0
 24 30  4  0
 27 30  4  0
 27 33  4  0
 29 31  4  0
M  END
$$$$

 Created by Python create_sdf_string function

 34 51  0  0  0  0  0  0  0  0999 V2000
    9.1471   -0.2024   25.0135 N   0  0  0  0  0  0  0  0  0  0  0  0
    9.6474   -1.3750   24.1725 C   0  0  0  0  0  0  0  0  0  0  0  0
   10.2947   -5.6044   19.4993 C   0  0  0  0  0  0  0  0  0  0  0  0
   10.4508   -3.2191   17.8184 C   0  0  0  0  0  0  0  0  0  0  0  0
    7.1075   -8.7843   15.2080 C   0  0  0  0  0  0  0  0  0  0  0  0
    2.4952  -12.0249   20.2774 C   0  0  0  0  0  0  0  0  0  0  0  0
    6.1183   -9.5368   18.8308 N   0  0  0  0  0  0  0  0  0  0  0  0
   10.7163   -4.7588   19.8134 C   0  0  0  0  0  0  0  0  0  0  0  0
    3.7719  -10.7885   18.3734 C   0  0  0  0  0  0  0  0  0  0  0  0
    9.9706   -3.8560   17.1238 C   0  0  0  0  0  0  0  0  0  0  0  0
    4.8249   -9.2689   16.7411 N   0  0  0  0  0  0  0  0  0  0  0  0
    9.7568   -3.5315   15.7101 P   0  0  0  0  0  0  0  0  0  0  0  0
   10.7688   -3.3548   19.1976 C   0  0  0  0  0  0  0  0  0  0  0  0
    8.7126   -6.7643   15.8883 C   0  0  0  0  0  0  0  0  0  0  0  0
    6.7248   -8.0159   17.1222 C   0  0  0  0  0  0  0  0  0  0  0  0
    1.3510  -10.2141   17.4858 C   0  0  0  0  0  0  0  0  0  0  0  0
    8.6752   -0.3216   26.3872 C   0  0  0  0  0  0  0  0  0  0  0  0
    9.4707   -5.8983   18.3049 C   0  0  0  0  0  0  0  0  0  0  0  0
   11.5805   -2.4229   19.6032 O   0  0  0  0  0  0  0  0  0  0  0  0
    4.9426   -9.3194   15.5700 C   0  0  0  0  0  0  0  0  0  0  0  0
    5.8096   -8.5196   14.8746 C   0  0  0  0  0  0  0  0  0  0  0  0
    8.7229   -5.4405   16.2764 C   0  0  0  0  0  0  0  0  0  0  0  0
    1.2828  -12.4372   20.8201 C   0  0  0  0  0  0  0  0  0  0  0  0
    8.9098    1.3347   24.3750 C   0  0  0  0  0  0  0  0  0  0  0  0
    0.0304  -11.4161   19.0557 N   0  0  0  0  0  0  0  0  0  0  0  0
    9.3862   -5.2608   17.2170 C   0  0  0  0  0  0  0  0  0  0  0  0
    3.9041  -10.0189   17.5703 C   0  0  0  0  0  0  0  0  0  0  0  0
    0.3117  -12.2027   20.2929 C   0  0  0  0  0  0  0  0  0  0  0  0
    2.4228   -9.7985   16.8069 C   0  0  0  0  0  0  0  0  0  0  0  0
    1.3262  -11.1006   18.7887 C   0  0  0  0  0  0  0  0  0  0  0  0
    7.4877   -7.7824   16.3302 N   0  0  0  0  0  0  0  0  0  0  0  0
    2.4624  -11.2982   19.1092 He  0  0  0  0  0  0  0  0  0  0  0  0
    5.7689   -9.1263   17.7395 He  0  0  0  0  0  0  0  0  0  0  0  0
    9.3329   -7.2104   18.5377 He  0  0  0  0  0  0  0  0  0  0  0  0
  1  2  1  0
  1 17  1  0
  1 22  1  0
  1 24  2  0
  1 26  4  0
  1 31  1  0
  3  8  4  0
  3 11  4  0
  3 18  4  0
  4 10  4  0
  4 13  4  0
  5 21  1  0
  5 22  2  0
  5 31  1  0
  6 21  2  0
  6 23  4  0
  6 27  2  0
  7  8  4  0
  8 13  4  0
  8 27  3  0
  8 31  3  0
  9 14  4  0
  9 27  4  0
 10 12  1  0
 10 27  1  0
 11 20  1  0
 11 25  4  0
 11 27  1  0
 13 19  1  0
 13 31  3  0
 14 22  1  0
 14 31  1  0
 15 31  1  0
 16 26  4  0
 16 29  4  0
 16 30  4  0
 16 31  3  0
 17 23  1  0
 17 30  3  0
 17 31  4  0
 18 26  2  0
 19 28  3  0
 20 21  1  0
 20 31  1  0
 21 25  1  0
 22 26  1  0
 23 25  1  0
 25 28  4  0
 25 30  4  0
 27 29  4  0
 27 30  4  0
M  END
$$$$

 Created by Python create_sdf_string function

 34 36  0  0  0  0  0  0  0  0999 V2000
    9.1429   -0.1248   24.9491 N   0  0  0  0  0  0  0  0  0  0  0  0
    9.6386   -1.2919   24.1771 C   0  0  0  0  0  0  0  0  0  0  0  0
   10.1794   -5.7362   19.4874 C   0  0  0  0  0  0  0  0  0  0  0  0
    2.5506  -11.2947   19.1435 C   0  0  0  0  0  0  0  0  0  0  0  0
   10.5527   -3.1625   17.8885 C   0  0  0  0  0  0  0  0  0  0  0  0
    7.1880   -8.7179   15.1426 C   0  0  0  0  0  0  0  0  0  0  0  0
    2.5524  -12.0854   20.2931 C   0  0  0  0  0  0  0  0  0  0  0  0
    6.0760   -9.4400   18.8687 O   0  0  0  0  0  0  0  0  0  0  0  0
   10.7481   -4.5293   19.8730 C   0  0  0  0  0  0  0  0  0  0  0  0
    3.6994  -10.7746   18.5519 C   0  0  0  0  0  0  0  0  0  0  0  0
    9.9167   -3.9725   17.0434 C   0  0  0  0  0  0  0  0  0  0  0  0
    4.8273   -9.4266   16.8675 N   0  0  0  0  0  0  0  0  0  0  0  0
    9.7533   -3.4546   15.7370 F   0  0  0  0  0  0  0  0  0  0  0  0
   10.9273   -3.3742   19.1715 C   0  0  0  0  0  0  0  0  0  0  0  0
    8.6515   -6.9356   15.8572 C   0  0  0  0  0  0  0  0  0  0  0  0
    6.6525   -7.8524   17.3021 C   0  0  0  0  0  0  0  0  0  0  0  0
    1.2937  -10.2503   17.4555 C   0  0  0  0  0  0  0  0  0  0  0  0
    8.6804   -0.3629   26.3474 C   0  0  0  0  0  0  0  0  0  0  0  0
    9.6221   -5.9984   18.3258 C   0  0  0  0  0  0  0  0  0  0  0  0
   11.4923   -2.3889   19.7736 O   0  0  0  0  0  0  0  0  0  0  0  0
    4.8577   -9.3338   15.4431 C   0  0  0  0  0  0  0  0  0  0  0  0
    5.7526   -8.5307   14.8717 C   0  0  0  0  0  0  0  0  0  0  0  0
    8.5591   -5.5755   16.1914 C   0  0  0  0  0  0  0  0  0  0  0  0
    1.3731  -12.4818   20.8544 C   0  0  0  0  0  0  0  0  0  0  0  0
    8.9379    1.1447   24.3699 C   0  0  0  0  0  0  0  0  0  0  0  0
    5.8684   -8.9926   17.7140 C   0  0  0  0  0  0  0  0  0  0  0  0
    0.1380  -11.4570   19.1625 N   0  0  0  0  0  0  0  0  0  0  0  0
    9.4082   -5.1934   17.2381 C   0  0  0  0  0  0  0  0  0  0  0  0
    3.6743   -9.9953   17.4577 C   0  0  0  0  0  0  0  0  0  0  0  0
    0.1724  -12.1708   20.2748 C   0  0  0  0  0  0  0  0  0  0  0  0
    2.4621   -9.7663   16.9082 C   0  0  0  0  0  0  0  0  0  0  0  0
    9.2681   -7.2349   18.4624 F   0  0  0  0  0  0  0  0  0  0  0  0
    1.3101  -11.0101   18.5867 C   0  0  0  0  0  0  0  0  0  0  0  0
    7.5925   -7.8302   16.2495 N   0  0  0  0  0  0  0  0  0  0  0  0
  1  2  1  0
  1 18  1  0
  1 25  1  0
  3  9  4  0
  3 19  4  0
  4  7  4  0
  4 10  4  0
  4 33  4  0
  5 11  4  0
  5 14  4  0
  6 22  1  0
  6 34  1  0
  7 24  4  0
  8 26  2  0
  9 14  4  0
 10 29  4  0
 11 13  1  0
 11 28  4  0
 12 21  1  0
 12 26  1  0
 12 29  1  0
 14 20  1  0
 15 23  1  0
 15 34  1  0
 16 26  1  0
 16 34  1  0
 17 31  4  0
 17 33  4  0
 19 28  4  0
 19 32  1  0
 21 22  1  0
 23 28  1  0
 24 30  4  0
 27 30  4  0
 27 33  4  0
 29 31  4  0
M  END
$$$$

 Created by Python create_sdf_string function

 34 34  0  0  0  0  0  0  0  0999 V2000
    9.0340    0.0188   24.9865 N   0  0  0  0  0  0  0  0  0  0  0  0
    9.6249   -1.4371   24.1956 C   0  0  0  0  0  0  0  0  0  0  0  0
   10.2308   -5.6925   19.3189 C   0  0  0  0  0  0  0  0  0  0  0  0
    2.5572  -12.0817   20.2108 O   0  0  0  0  0  0  0  0  0  0  0  0
    6.3160   -9.2260   18.9592 O   0  0  0  0  0  0  0  0  0  0  0  0
   10.7177   -4.4380   19.9098 C   0  0  0  0  0  0  0  0  0  0  0  0
    3.6598  -10.7322   18.4747 C   0  0  0  0  0  0  0  0  0  0  0  0
    9.9246   -3.9187   17.0431 C   0  0  0  0  0  0  0  0  0  0  0  0
    4.9186   -9.2734   17.0661 N   0  0  0  0  0  0  0  0  0  0  0  0
    9.7535   -3.4167   15.8164 F   0  0  0  0  0  0  0  0  0  0  0  0
   10.9334   -3.4048   19.1810 O   0  0  0  0  0  0  0  0  0  0  0  0
    8.8583   -6.8061   15.6216 C   0  0  0  0  0  0  0  0  0  0  0  0
    6.6606   -7.8794   17.2548 C   0  0  0  0  0  0  0  0  0  0  0  0
    8.6203   -0.3682   26.3246 C   0  0  0  0  0  0  0  0  0  0  0  0
    9.4969   -5.9914   18.1633 C   0  0  0  0  0  0  0  0  0  0  0  0
   11.3708   -2.3901   19.8173 O   0  0  0  0  0  0  0  0  0  0  0  0
    4.7597   -9.1899   15.5601 C   0  0  0  0  0  0  0  0  0  0  0  0
    5.7720   -8.3010   15.0076 C   0  0  0  0  0  0  0  0  0  0  0  0
    8.3660   -5.5696   16.1828 C   0  0  0  0  0  0  0  0  0  0  0  0
    1.6329  -12.4966   20.7466 C   0  0  0  0  0  0  0  0  0  0  0  0
    9.0433    0.9772   24.5144 C   0  0  0  0  0  0  0  0  0  0  0  0
    5.9062   -9.0704   17.6204 C   0  0  0  0  0  0  0  0  0  0  0  0
    0.2626  -11.4912   19.1169 N   0  0  0  0  0  0  0  0  0  0  0  0
    9.3531   -5.0398   17.3268 C   0  0  0  0  0  0  0  0  0  0  0  0
    3.7134  -10.1088   17.3185 C   0  0  0  0  0  0  0  0  0  0  0  0
    0.2637  -12.1347   20.0149 C   0  0  0  0  0  0  0  0  0  0  0  0
    2.4752   -9.8532   16.6585 C   0  0  0  0  0  0  0  0  0  0  0  0
    9.4479   -7.3114   18.3929 F   0  0  0  0  0  0  0  0  0  0  0  0
    1.4125  -11.1872   18.4135 C   0  0  0  0  0  0  0  0  0  0  0  0
    2.4852  -11.3322   19.2281 He  0  0  0  0  0  0  0  0  0  0  0  0
   10.6788   -3.1202   17.7841 He  0  0  0  0  0  0  0  0  0  0  0  0
    7.1523   -8.8915   14.9625 He  0  0  0  0  0  0  0  0  0  0  0  0
    1.2914  -10.3204   17.2350 He  0  0  0  0  0  0  0  0  0  0  0  0
    7.5544   -7.7143   16.1685 He  0  0  0  0  0  0  0  0  0  0  0  0
  1  2  1  0
  1 14  1  0
  1 21  1  0
  1 23  3  0
  3 15  4  0
  4 20  4  0
  4 21  1  0
  4 29  4  0
  5 22  2  0
  7 25  4  0
  8 10  1  0
  8 22  3  0
  8 24  4  0
  9 22  1  0
  9 25  1  0
 11 16  1  0
 11 20  1  0
 12 19  1  0
 13 22  1  0
 15 24  4  0
 15 25  2  0
 15 28  1  0
 16 23  4  0
 17 18  1  0
 17 19  2  0
 18 28  2  0
 19 24  1  0
 20 22  4  0
 20 26  4  0
 22 26  1  0
 23 26  4  0
 23 28  1  0
 23 29  4  0
 25 27  4  0
M  END
$$$$

 Created by Python create_sdf_string function

 34 36  0  0  0  0  0  0  0  0999 V2000
    9.0679   -0.1827   25.0176 N   0  0  0  0  0  0  0  0  0  0  0  0
    9.6086   -1.3403   24.2180 C   0  0  0  0  0  0  0  0  0  0  0  0
   10.1790   -5.6780   19.4060 C   0  0  0  0  0  0  0  0  0  0  0  0
    2.5851  -11.2849   19.0664 C   0  0  0  0  0  0  0  0  0  0  0  0
   10.5920   -3.1459   17.8609 C   0  0  0  0  0  0  0  0  0  0  0  0
    7.1173   -8.6607   15.1111 C   0  0  0  0  0  0  0  0  0  0  0  0
    2.6110  -12.0431   20.1970 N   0  0  0  0  0  0  0  0  0  0  0  0
    6.1458   -9.2749   18.8861 O   0  0  0  0  0  0  0  0  0  0  0  0
   10.7196   -4.5182   19.7802 C   0  0  0  0  0  0  0  0  0  0  0  0
    3.7203  -10.7260   18.5106 C   0  0  0  0  0  0  0  0  0  0  0  0
    9.9266   -3.9295   17.0418 C   0  0  0  0  0  0  0  0  0  0  0  0
    4.8659   -9.3536   16.8883 N   0  0  0  0  0  0  0  0  0  0  0  0
    9.7326   -3.3857   15.7977 F   0  0  0  0  0  0  0  0  0  0  0  0
   10.8998   -3.3707   19.1353 C   0  0  0  0  0  0  0  0  0  0  0  0
    8.6682   -6.8695   15.7174 C   0  0  0  0  0  0  0  0  0  0  0  0
    6.7306   -7.7983   17.3138 C   0  0  0  0  0  0  0  0  0  0  0  0
    1.3186  -10.3790   17.2981 C   0  0  0  0  0  0  0  0  0  0  0  0
    8.5938   -0.4012   26.3535 C   0  0  0  0  0  0  0  0  0  0  0  0
    9.6311   -5.9920   18.2685 C   0  0  0  0  0  0  0  0  0  0  0  0
   11.4259   -2.3872   19.7957 O   0  0  0  0  0  0  0  0  0  0  0  0
    4.8126   -9.1646   15.4571 C   0  0  0  0  0  0  0  0  0  0  0  0
    5.7056   -8.3449   14.9097 C   0  0  0  0  0  0  0  0  0  0  0  0
    8.4176   -5.5201   16.2112 C   0  0  0  0  0  0  0  0  0  0  0  0
    1.4684  -12.4960   20.7514 C   0  0  0  0  0  0  0  0  0  0  0  0
    9.0326    1.1103   24.4118 C   0  0  0  0  0  0  0  0  0  0  0  0
    5.9343   -8.8856   17.7164 C   0  0  0  0  0  0  0  0  0  0  0  0
    0.2301  -11.5385   19.0315 N   0  0  0  0  0  0  0  0  0  0  0  0
    9.3900   -5.1226   17.2122 C   0  0  0  0  0  0  0  0  0  0  0  0
    3.6907   -9.9812   17.4123 C   0  0  0  0  0  0  0  0  0  0  0  0
    0.2752  -12.2260   20.1549 C   0  0  0  0  0  0  0  0  0  0  0  0
    2.4815   -9.8414   16.7378 C   0  0  0  0  0  0  0  0  0  0  0  0
    9.3624   -7.2777   18.3358 F   0  0  0  0  0  0  0  0  0  0  0  0
    1.3693  -11.0655   18.4640 C   0  0  0  0  0  0  0  0  0  0  0  0
    7.6811   -7.8647   16.1937 N   0  0  0  0  0  0  0  0  0  0  0  0
  1  2  1  0
  1 18  1  0
  1 25  1  0
  3  9  4  0
  3 19  4  0
  4  7  4  0
  4 10  4  0
  4 33  4  0
  5 11  4  0
  5 14  4  0
  6 22  1  0
  6 34  1  0
  7 24  4  0
  8 26  2  0
  9 14  4  0
 10 29  4  0
 11 13  1  0
 11 28  4  0
 12 21  1  0
 12 26  1  0
 12 29  1  0
 14 20  1  0
 15 23  1  0
 15 34  1  0
 16 26  1  0
 16 34  1  0
 17 31  4  0
 17 33  4  0
 19 28  4  0
 19 32  1  0
 21 22  1  0
 23 28  1  0
 24 30  4  0
 27 30  4  0
 27 33  4  0
 29 31  4  0
M  END
$$$$

 Created by Python create_sdf_string function

 34 47  0  0  0  0  0  0  0  0999 V2000
    9.1713   -0.2305   25.1297 N   0  0  0  0  0  0  0  0  0  0  0  0
    9.5508   -1.3373   24.2057 C   0  0  0  0  0  0  0  0  0  0  0  0
   10.1077   -5.6032   19.3683 C   0  0  0  0  0  0  0  0  0  0  0  0
    2.7667  -11.2891   19.1562 C   0  0  0  0  0  0  0  0  0  0  0  0
    7.0825   -8.7271   15.1381 C   0  0  0  0  0  0  0  0  0  0  0  0
    2.5832  -12.0362   20.3627 N   0  0  0  0  0  0  0  0  0  0  0  0
    6.2905   -9.4760   18.9811 O   0  0  0  0  0  0  0  0  0  0  0  0
   10.7015   -4.5702   19.8020 C   0  0  0  0  0  0  0  0  0  0  0  0
    3.8484  -10.6508   18.4793 C   0  0  0  0  0  0  0  0  0  0  0  0
   10.0098   -4.0237   16.9320 C   0  0  0  0  0  0  0  0  0  0  0  0
    4.8114   -9.4369   16.9327 N   0  0  0  0  0  0  0  0  0  0  0  0
    9.6093   -3.4542   15.7059 F   0  0  0  0  0  0  0  0  0  0  0  0
   10.8630   -3.2875   19.1070 C   0  0  0  0  0  0  0  0  0  0  0  0
    8.7007   -6.9147   15.7265 C   0  0  0  0  0  0  0  0  0  0  0  0
    6.8713   -7.6923   17.5365 C   0  0  0  0  0  0  0  0  0  0  0  0
    1.3457  -10.5533   17.2374 C   0  0  0  0  0  0  0  0  0  0  0  0
    8.6201   -0.5090   26.2485 C   0  0  0  0  0  0  0  0  0  0  0  0
    9.8326   -5.9836   18.3113 C   0  0  0  0  0  0  0  0  0  0  0  0
   11.2468   -2.3910   19.6253 O   0  0  0  0  0  0  0  0  0  0  0  0
    4.7216   -9.1236   15.3009 C   0  0  0  0  0  0  0  0  0  0  0  0
    5.6756   -8.2004   14.9265 C   0  0  0  0  0  0  0  0  0  0  0  0
    8.5070   -5.4601   16.1728 C   0  0  0  0  0  0  0  0  0  0  0  0
    1.5289  -12.4994   20.8279 C   0  0  0  0  0  0  0  0  0  0  0  0
    8.9083    1.0304   24.4441 C   0  0  0  0  0  0  0  0  0  0  0  0
    5.9203   -8.7978   17.6804 C   0  0  0  0  0  0  0  0  0  0  0  0
    0.4159  -11.4744   19.0745 N   0  0  0  0  0  0  0  0  0  0  0  0
    9.5383   -5.2075   17.2380 C   0  0  0  0  0  0  0  0  0  0  0  0
    3.6593   -9.9769   17.3170 C   0  0  0  0  0  0  0  0  0  0  0  0
    0.3616  -12.2101   20.0222 C   0  0  0  0  0  0  0  0  0  0  0  0
    2.6240  -10.0333   16.7502 C   0  0  0  0  0  0  0  0  0  0  0  0
    9.1979   -7.1619   18.4695 F   0  0  0  0  0  0  0  0  0  0  0  0
    1.4464  -11.0175   18.5110 C   0  0  0  0  0  0  0  0  0  0  0  0
    7.8399   -7.9089   16.2037 N   0  0  0  0  0  0  0  0  0  0  0  0
   10.6338   -3.2028   17.7055 He  0  0  0  0  0  0  0  0  0  0  0  0
  1 17  1  0
  1 22  3  0
  1 24  1  0
  2 11  4  0
  2 13  1  0
  2 23  3  0
  2 33  4  0
  3  8  4  0
  3 18  4  0
  4  6  4  0
  4  9  3  0
  5 17  2  0
  5 21  1  0
  5 32  1  0
  5 33  1  0
  6 14  4  0
  6 15  3  0
  6 23  4  0
  6 33  3  0
  7 18  2  0
  7 25  2  0
  8 13  4  0
  9 26  4  0
  9 28  4  0
 10 12  1  0
 10 26  1  0
 10 27  4  0
 10 32  1  0
 11 16  2  0
 11 20  1  0
 11 25  1  0
 11 28  1  0
 12 25  2  0
 14 22  1  0
 14 33  1  0
 15 25  1  0
 15 33  1  0
 16 30  4  0
 16 32  4  0
 17 19  3  0
 18 27  4  0
 22 27  1  0
 23 29  4  0
 25 31  4  0
 26 29  4  0
 26 32  1  0
 28 30  4  0
M  END
$$$$

 Created by Python create_sdf_string function

 34 36  0  0  0  0  0  0  0  0999 V2000
    9.1999   -0.2095   25.0755 N   0  0  0  0  0  0  0  0  0  0  0  0
    9.5805   -1.3440   24.1825 C   0  0  0  0  0  0  0  0  0  0  0  0
   10.1973   -5.6984   19.3840 C   0  0  0  0  0  0  0  0  0  0  0  0
    2.6859  -11.2513   19.1171 C   0  0  0  0  0  0  0  0  0  0  0  0
   10.5942   -3.2003   17.7548 C   0  0  0  0  0  0  0  0  0  0  0  0
    7.1502   -8.6754   15.1805 C   0  0  0  0  0  0  0  0  0  0  0  0
    2.6971  -11.9662   20.2732 N   0  0  0  0  0  0  0  0  0  0  0  0
    6.1752   -9.3722   18.9086 O   0  0  0  0  0  0  0  0  0  0  0  0
   10.6777   -4.5137   19.7616 C   0  0  0  0  0  0  0  0  0  0  0  0
    3.8071  -10.6704   18.5552 C   0  0  0  0  0  0  0  0  0  0  0  0
    9.9579   -3.9784   16.9437 C   0  0  0  0  0  0  0  0  0  0  0  0
    4.9011   -9.3157   16.8859 N   0  0  0  0  0  0  0  0  0  0  0  0
    9.7005   -3.4597   15.7272 F   0  0  0  0  0  0  0  0  0  0  0  0
   10.8589   -3.3754   19.0557 C   0  0  0  0  0  0  0  0  0  0  0  0
    8.6736   -6.9300   15.7709 C   0  0  0  0  0  0  0  0  0  0  0  0
    6.8423   -7.7445   17.3912 C   0  0  0  0  0  0  0  0  0  0  0  0
    1.4089  -10.4716   17.2840 C   0  0  0  0  0  0  0  0  0  0  0  0
    8.5778   -0.5227   26.3453 C   0  0  0  0  0  0  0  0  0  0  0  0
    9.6386   -5.9737   18.2705 C   0  0  0  0  0  0  0  0  0  0  0  0
   11.3160   -2.3721   19.6579 O   0  0  0  0  0  0  0  0  0  0  0  0
    4.7959   -9.0997   15.3888 C   0  0  0  0  0  0  0  0  0  0  0  0
    5.7319   -8.1872   14.9298 C   0  0  0  0  0  0  0  0  0  0  0  0
    8.5231   -5.5790   16.1517 C   0  0  0  0  0  0  0  0  0  0  0  0
    1.5579  -12.4615   20.7889 C   0  0  0  0  0  0  0  0  0  0  0  0
    8.9029    1.0779   24.4306 C   0  0  0  0  0  0  0  0  0  0  0  0
    5.9727   -8.8906   17.7547 C   0  0  0  0  0  0  0  0  0  0  0  0
    0.3124  -11.5599   19.0399 N   0  0  0  0  0  0  0  0  0  0  0  0
    9.4492   -5.1805   17.1612 C   0  0  0  0  0  0  0  0  0  0  0  0
    3.7759   -9.9820   17.3913 C   0  0  0  0  0  0  0  0  0  0  0  0
    0.3556  -12.2304   20.1627 C   0  0  0  0  0  0  0  0  0  0  0  0
    2.5780   -9.9406   16.7356 C   0  0  0  0  0  0  0  0  0  0  0  0
    9.2569   -7.2055   18.3769 F   0  0  0  0  0  0  0  0  0  0  0  0
    1.4716  -11.0946   18.4724 C   0  0  0  0  0  0  0  0  0  0  0  0
    7.7600   -7.9078   16.2708 N   0  0  0  0  0  0  0  0  0  0  0  0
  1  2  1  0
  1 18  1  0
  1 25  1  0
  3  9  4  0
  3 19  4  0
  4  7  4  0
  4 10  4  0
  4 33  4  0
  5 11  4  0
  5 14  4  0
  6 22  1  0
  6 34  1  0
  7 24  4  0
  8 26  2  0
  9 14  4  0
 10 29  4  0
 11 13  1  0
 11 28  4  0
 12 21  1  0
 12 26  1  0
 12 29  1  0
 14 20  1  0
 15 23  1  0
 15 34  1  0
 16 26  1  0
 16 34  1  0
 17 31  4  0
 17 33  4  0
 19 28  4  0
 19 32  1  0
 21 22  1  0
 23 28  1  0
 24 30  4  0
 27 30  4  0
 27 33  4  0
 29 31  4  0
M  END
$$$$

 Created by Python create_sdf_string function

 34 55  0  0  0  0  0  0  0  0999 V2000
    9.1235   -0.1312   25.1106 N   0  0  0  0  0  0  0  0  0  0  0  0
    9.6783   -1.2583   24.1834 C   0  0  0  0  0  0  0  0  0  0  0  0
   10.2112   -5.7043   19.3527 C   0  0  0  0  0  0  0  0  0  0  0  0
    2.7597  -11.1276   19.0898 C   0  0  0  0  0  0  0  0  0  0  0  0
   10.5968   -3.2155   17.9144 S   0  0  0  0  0  0  0  0  0  0  0  0
    7.0866   -8.6891   15.2518 C   0  0  0  0  0  0  0  0  0  0  0  0
    2.7017  -11.9932   20.1929 N   0  0  0  0  0  0  0  0  0  0  0  0
    6.1039   -9.2663   18.7319 O   0  0  0  0  0  0  0  0  0  0  0  0
   10.6392   -4.5434   19.9670 C   0  0  0  0  0  0  0  0  0  0  0  0
    3.7167  -10.7039   18.5274 C   0  0  0  0  0  0  0  0  0  0  0  0
   10.0503   -4.0188   16.8877 C   0  0  0  0  0  0  0  0  0  0  0  0
    4.9246   -9.2488   16.7896 N   0  0  0  0  0  0  0  0  0  0  0  0
    9.6773   -3.6057   15.6709 F   0  0  0  0  0  0  0  0  0  0  0  0
   10.6902   -3.4782   18.9883 C   0  0  0  0  0  0  0  0  0  0  0  0
    8.6036   -6.8530   15.7753 C   0  0  0  0  0  0  0  0  0  0  0  0
    6.9212   -7.8978   17.3491 C   0  0  0  0  0  0  0  0  0  0  0  0
    1.5194  -10.5917   17.4960 C   0  0  0  0  0  0  0  0  0  0  0  0
    8.4296   -0.5228   26.1460 C   0  0  0  0  0  0  0  0  0  0  0  0
    9.5675   -6.0916   18.3283 N   0  0  0  0  0  0  0  0  0  0  0  0
   11.3087   -2.2844   19.6954 O   0  0  0  0  0  0  0  0  0  0  0  0
    4.7989   -8.9971   15.3627 C   0  0  0  0  0  0  0  0  0  0  0  0
    5.9658   -8.0493   14.7093 C   0  0  0  0  0  0  0  0  0  0  0  0
    8.5484   -5.6527   16.1430 C   0  0  0  0  0  0  0  0  0  0  0  0
    1.6127  -12.5480   20.8735 C   0  0  0  0  0  0  0  0  0  0  0  0
    8.7854    1.1347   24.4627 C   0  0  0  0  0  0  0  0  0  0  0  0
    6.3033   -8.8901   17.9541 C   0  0  0  0  0  0  0  0  0  0  0  0
    9.4793   -5.1077   17.0581 C   0  0  0  0  0  0  0  0  0  0  0  0
    3.8253  -10.0259   17.5363 C   0  0  0  0  0  0  0  0  0  0  0  0
    0.4286  -12.3968   20.2763 C   0  0  0  0  0  0  0  0  0  0  0  0
    2.7155   -9.9676   16.5830 C   0  0  0  0  0  0  0  0  0  0  0  0
    9.1434   -7.2471   18.4067 F   0  0  0  0  0  0  0  0  0  0  0  0
    1.6304  -11.2347   18.3613 C   0  0  0  0  0  0  0  0  0  0  0  0
    7.4719   -8.1123   16.3023 N   0  0  0  0  0  0  0  0  0  0  0  0
    0.2689  -11.7323   19.1499 He  0  0  0  0  0  0  0  0  0  0  0  0
  1  2  1  0
  1 13  1  0
  1 18  1  0
  1 25  1  0
  3  9  4  0
  3 19  4  0
  3 22  1  0
  4  7  4  0
  4 10  4  0
  4 13  3  0
  4 27  3  0
  4 32  4  0
  5  6  4  0
  5 11  4  0
  5 14  4  0
  5 25  3  0
  6 33  1  0
  7  8  2  0
  7 11  1  0
  7 19  2  0
  7 24  4  0
  7 32  3  0
  8 23  3  0
  8 29  4  0
  9 14  4  0
 10 27  3  0
 10 28  4  0
 11 13  1  0
 11 26  3  0
 11 27  4  0
 12 21  1  0
 12 25  4  0
 12 28  1  0
 12 30  2  0
 12 31  3  0
 13 14  2  0
 14 20  1  0
 14 28  4  0
 15 22  2  0
 15 23  1  0
 15 33  1  0
 16 17  4  0
 16 26  1  0
 16 33  1  0
 17 30  4  0
 17 31  3  0
 17 32  4  0
 19 27  4  0
 19 31  1  0
 19 32  4  0
 21 22  1  0
 24 29  4  0
 25 29  2  0
 28 30  4  0
 29 31  4  0
M  END
$$$$

 Created by Python create_sdf_string function

 34 36  0  0  0  0  0  0  0  0999 V2000
    9.1722   -0.1687   25.0711 N   0  0  0  0  0  0  0  0  0  0  0  0
    9.6846   -1.2453   24.1552 C   0  0  0  0  0  0  0  0  0  0  0  0
   10.1204   -5.7637   19.3929 C   0  0  0  0  0  0  0  0  0  0  0  0
    2.7150  -11.2801   19.1244 C   0  0  0  0  0  0  0  0  0  0  0  0
   10.5708   -3.1929   17.7882 C   0  0  0  0  0  0  0  0  0  0  0  0
    7.1855   -8.7320   15.1781 C   0  0  0  0  0  0  0  0  0  0  0  0
    2.7785  -11.9810   20.2796 N   0  0  0  0  0  0  0  0  0  0  0  0
    6.0744   -9.2727   18.9290 O   0  0  0  0  0  0  0  0  0  0  0  0
   10.6404   -4.5553   19.7986 C   0  0  0  0  0  0  0  0  0  0  0  0
    3.8309  -10.6657   18.5746 C   0  0  0  0  0  0  0  0  0  0  0  0
    9.9432   -4.0201   16.9567 C   0  0  0  0  0  0  0  0  0  0  0  0
    4.9576   -9.2999   16.8660 N   0  0  0  0  0  0  0  0  0  0  0  0
    9.7640   -3.5550   15.6834 F   0  0  0  0  0  0  0  0  0  0  0  0
   10.8118   -3.4118   19.0991 C   0  0  0  0  0  0  0  0  0  0  0  0
    8.6311   -6.9561   15.7403 C   0  0  0  0  0  0  0  0  0  0  0  0
    6.8610   -7.7973   17.3268 C   0  0  0  0  0  0  0  0  0  0  0  0
    1.4766  -10.5071   17.2885 C   0  0  0  0  0  0  0  0  0  0  0  0
    8.3941   -0.5760   26.2434 C   0  0  0  0  0  0  0  0  0  0  0  0
    9.6154   -6.0085   18.2814 C   0  0  0  0  0  0  0  0  0  0  0  0
   11.2978   -2.3550   19.7488 O   0  0  0  0  0  0  0  0  0  0  0  0
    4.8162   -8.9423   15.4188 C   0  0  0  0  0  0  0  0  0  0  0  0
    5.7983   -8.1768   14.8573 C   0  0  0  0  0  0  0  0  0  0  0  0
    8.5756   -5.6946   16.1304 C   0  0  0  0  0  0  0  0  0  0  0  0
    1.6470  -12.5102   20.8449 C   0  0  0  0  0  0  0  0  0  0  0  0
    8.7975    1.1335   24.4505 C   0  0  0  0  0  0  0  0  0  0  0  0
    5.9922   -8.8999   17.7634 C   0  0  0  0  0  0  0  0  0  0  0  0
    0.3611  -11.7242   19.0652 N   0  0  0  0  0  0  0  0  0  0  0  0
    9.4570   -5.2139   17.2123 C   0  0  0  0  0  0  0  0  0  0  0  0
    3.8312   -9.9611   17.4266 C   0  0  0  0  0  0  0  0  0  0  0  0
    0.4375  -12.3746   20.2191 C   0  0  0  0  0  0  0  0  0  0  0  0
    2.6217   -9.9356   16.7862 C   0  0  0  0  0  0  0  0  0  0  0  0
    9.2589   -7.2495   18.4376 F   0  0  0  0  0  0  0  0  0  0  0  0
    1.5126  -11.1652   18.4807 C   0  0  0  0  0  0  0  0  0  0  0  0
    7.7167   -7.9436   16.2427 N   0  0  0  0  0  0  0  0  0  0  0  0
  1  2  1  0
  1 18  1  0
  1 25  1  0
  3  9  4  0
  3 19  4  0
  4  7  4  0
  4 10  4  0
  4 33  4  0
  5 11  4  0
  5 14  4  0
  6 22  1  0
  6 34  1  0
  7 24  4  0
  8 26  2  0
  9 14  4  0
 10 29  4  0
 11 13  1  0
 11 28  4  0
 12 21  1  0
 12 26  1  0
 12 29  1  0
 14 20  1  0
 15 23  1  0
 15 34  1  0
 16 26  1  0
 16 34  1  0
 17 31  4  0
 17 33  4  0
 19 28  4  0
 19 32  1  0
 21 22  1  0
 23 28  1  0
 24 30  4  0
 27 30  4  0
 27 33  4  0
 29 31  4  0
M  END
$$$$

 Created by Python create_sdf_string function

 34 60  0  0  0  0  0  0  0  0999 V2000
    9.2339   -0.1027   25.2060 N   0  0  0  0  0  0  0  0  0  0  0  0
    9.7393   -1.0855   24.0581 C   0  0  0  0  0  0  0  0  0  0  0  0
   10.0023   -5.6524   19.3908 C   0  0  0  0  0  0  0  0  0  0  0  0
    2.7768  -11.2777   19.1438 C   0  0  0  0  0  0  0  0  0  0  0  0
    7.1434   -8.6815   15.1963 C   0  0  0  0  0  0  0  0  0  0  0  0
    2.7359  -11.9507   20.2731 N   0  0  0  0  0  0  0  0  0  0  0  0
    5.8756   -9.3081   18.9262 O   0  0  0  0  0  0  0  0  0  0  0  0
   10.5996   -4.5744   19.7351 C   0  0  0  0  0  0  0  0  0  0  0  0
    3.9046  -10.6539   18.7688 C   0  0  0  0  0  0  0  0  0  0  0  0
    9.9386   -4.0667   16.9840 C   0  0  0  0  0  0  0  0  0  0  0  0
    5.0745   -9.3502   16.8983 N   0  0  0  0  0  0  0  0  0  0  0  0
    9.7950   -3.5463   15.6761 F   0  0  0  0  0  0  0  0  0  0  0  0
   10.8013   -3.6550   19.2584 C   0  0  0  0  0  0  0  0  0  0  0  0
    8.6243   -7.0040   15.8083 C   0  0  0  0  0  0  0  0  0  0  0  0
    6.9584   -7.8694   17.1446 C   0  0  0  0  0  0  0  0  0  0  0  0
    1.3707  -10.6331   17.2613 C   0  0  0  0  0  0  0  0  0  0  0  0
    8.4887   -0.5386   26.3630 C   0  0  0  0  0  0  0  0  0  0  0  0
    9.5310   -6.0644   18.2450 C   0  0  0  0  0  0  0  0  0  0  0  0
   11.3594   -2.3583   19.6137 O   0  0  0  0  0  0  0  0  0  0  0  0
    4.8461   -8.9021   15.5422 C   0  0  0  0  0  0  0  0  0  0  0  0
    5.7380   -8.3126   14.7029 C   0  0  0  0  0  0  0  0  0  0  0  0
    8.5105   -5.7523   16.0697 C   0  0  0  0  0  0  0  0  0  0  0  0
    1.4921  -12.4505   20.7774 C   0  0  0  0  0  0  0  0  0  0  0  0
    8.8572    1.2195   24.2550 C   0  0  0  0  0  0  0  0  0  0  0  0
    5.8407   -8.8952   17.7495 C   0  0  0  0  0  0  0  0  0  0  0  0
    0.4221  -11.6893   19.0843 N   0  0  0  0  0  0  0  0  0  0  0  0
    9.5579   -5.1620   17.2385 C   0  0  0  0  0  0  0  0  0  0  0  0
    3.8385   -9.8938   17.4738 C   0  0  0  0  0  0  0  0  0  0  0  0
    0.5489  -12.4248   20.1671 C   0  0  0  0  0  0  0  0  0  0  0  0
    2.6725   -9.9831   16.9169 C   0  0  0  0  0  0  0  0  0  0  0  0
    9.3300   -7.2672   18.4585 F   0  0  0  0  0  0  0  0  0  0  0  0
    7.7485   -7.9056   16.4077 N   0  0  0  0  0  0  0  0  0  0  0  0
   10.6342   -3.1614   17.6766 He  0  0  0  0  0  0  0  0  0  0  0  0
    1.6075  -11.0076   18.4277 He  0  0  0  0  0  0  0  0  0  0  0  0
  1  2  1  0
  1  5  3  0
  1  9  2  0
  1 17  1  0
  1 24  1  0
  2 13  1  0
  2 23  3  0
  3  8  4  0
  3  9  4  0
  3 18  4  0
  3 23  4  0
  3 25  4  0
  4  6  4  0
  4  9  4  0
  4 13  1  0
  5 14  3  0
  5 15  4  0
  5 16  2  0
  5 21  1  0
  5 32  1  0
  6 10  2  0
  6 23  4  0
  6 30  1  0
  7 10  2  0
  7 11  4  0
  7 12  1  0
  7 25  2  0
  7 26  2  0
  8  9  3  0
  8 13  4  0
  9 25  3  0
  9 26  2  0
  9 28  4  0
 10 12  1  0
 10 14  1  0
 10 20  4  0
 10 27  4  0
 11 20  1  0
 11 21  4  0
 11 25  1  0
 12 27  1  0
 13 28  2  0
 13 30  1  0
 14 17  1  0
 14 22  1  0
 14 32  1  0
 15 25  1  0
 15 32  1  0
 16 30  4  0
 18 27  4  0
 18 31  1  0
 20 21  1  0
 22 27  1  0
 23 29  4  0
 26 29  4  0
 26 32  3  0
 28 29  1  0
 28 30  4  0
 29 30  1  0
 30 31  1  0
M  END
$$$$

 Created by Python create_sdf_string function

 34 36  0  0  0  0  0  0  0  0999 V2000
    9.2395   -0.0472   25.1126 N   0  0  0  0  0  0  0  0  0  0  0  0
    9.7319   -1.1252   24.1308 C   0  0  0  0  0  0  0  0  0  0  0  0
   10.0795   -5.7071   19.4002 C   0  0  0  0  0  0  0  0  0  0  0  0
    2.7395  -11.2614   19.1789 C   0  0  0  0  0  0  0  0  0  0  0  0
   10.5910   -3.2333   17.7588 C   0  0  0  0  0  0  0  0  0  0  0  0
    7.1857   -8.7742   15.1356 C   0  0  0  0  0  0  0  0  0  0  0  0
    2.7661  -11.9525   20.3511 N   0  0  0  0  0  0  0  0  0  0  0  0
    5.9987   -9.1679   18.9856 O   0  0  0  0  0  0  0  0  0  0  0  0
   10.5893   -4.5385   19.7742 C   0  0  0  0  0  0  0  0  0  0  0  0
    3.8558  -10.6343   18.6414 C   0  0  0  0  0  0  0  0  0  0  0  0
    9.9530   -4.0554   16.9641 C   0  0  0  0  0  0  0  0  0  0  0  0
    4.9084   -9.2812   16.9103 N   0  0  0  0  0  0  0  0  0  0  0  0
    9.7841   -3.5501   15.6835 F   0  0  0  0  0  0  0  0  0  0  0  0
   10.8305   -3.4409   19.0484 C   0  0  0  0  0  0  0  0  0  0  0  0
    8.6897   -7.0495   15.7875 C   0  0  0  0  0  0  0  0  0  0  0  0
    6.8198   -7.8096   17.3111 C   0  0  0  0  0  0  0  0  0  0  0  0
    1.4661  -10.5076   17.3323 C   0  0  0  0  0  0  0  0  0  0  0  0
    8.5053   -0.5023   26.2737 C   0  0  0  0  0  0  0  0  0  0  0  0
    9.6091   -6.0298   18.2945 C   0  0  0  0  0  0  0  0  0  0  0  0
   11.3742   -2.4221   19.6717 O   0  0  0  0  0  0  0  0  0  0  0  0
    4.8114   -8.9292   15.4762 C   0  0  0  0  0  0  0  0  0  0  0  0
    5.7847   -8.2916   14.8539 C   0  0  0  0  0  0  0  0  0  0  0  0
    8.5880   -5.7096   16.1211 C   0  0  0  0  0  0  0  0  0  0  0  0
    1.6350  -12.4990   20.8335 C   0  0  0  0  0  0  0  0  0  0  0  0
    8.8288    1.2063   24.3799 C   0  0  0  0  0  0  0  0  0  0  0  0
    5.9161   -8.8504   17.7917 C   0  0  0  0  0  0  0  0  0  0  0  0
    0.3891  -11.7372   19.0300 N   0  0  0  0  0  0  0  0  0  0  0  0
    9.4316   -5.2424   17.1796 C   0  0  0  0  0  0  0  0  0  0  0  0
    3.8056   -9.9549   17.4717 C   0  0  0  0  0  0  0  0  0  0  0  0
    0.4446  -12.3713   20.1745 C   0  0  0  0  0  0  0  0  0  0  0  0
    2.6178   -9.9304   16.8241 C   0  0  0  0  0  0  0  0  0  0  0  0
    9.3270   -7.2905   18.4091 F   0  0  0  0  0  0  0  0  0  0  0  0
    1.5361  -11.1710   18.5078 C   0  0  0  0  0  0  0  0  0  0  0  0
    7.7164   -7.9746   16.2364 N   0  0  0  0  0  0  0  0  0  0  0  0
  1  2  1  0
  1 18  1  0
  1 25  1  0
  3  9  4  0
  3 19  4  0
  4  7  4  0
  4 10  4  0
  4 33  4  0
  5 11  4  0
  5 14  4  0
  6 22  1  0
  6 34  1  0
  7 24  4  0
  8 26  2  0
  9 14  4  0
 10 29  4  0
 11 13  1  0
 11 28  4  0
 12 21  1  0
 12 26  1  0
 12 29  1  0
 14 20  1  0
 15 23  1  0
 15 34  1  0
 16 26  1  0
 16 34  1  0
 17 31  4  0
 17 33  4  0
 19 28  4  0
 19 32  1  0
 21 22  1  0
 23 28  1  0
 24 30  4  0
 27 30  4  0
 27 33  4  0
 29 31  4  0
M  END
$$$$

 Created by Python create_sdf_string function

 34 48  0  0  0  0  0  0  0  0999 V2000
    9.1737    0.0405   25.1515 N   0  0  0  0  0  0  0  0  0  0  0  0
    9.7999   -1.1235   24.1110 C   0  0  0  0  0  0  0  0  0  0  0  0
   10.0340   -5.7269   19.4912 C   0  0  0  0  0  0  0  0  0  0  0  0
    2.7335  -11.4511   19.0370 C   0  0  0  0  0  0  0  0  0  0  0  0
   10.5264   -3.1440   17.8028 C   0  0  0  0  0  0  0  0  0  0  0  0
    7.2710   -8.5932   15.1202 C   0  0  0  0  0  0  0  0  0  0  0  0
    2.7894  -11.9706   20.2418 N   0  0  0  0  0  0  0  0  0  0  0  0
    6.1648   -9.2520   18.8541 O   0  0  0  0  0  0  0  0  0  0  0  0
   10.5596   -4.5726   19.8263 C   0  0  0  0  0  0  0  0  0  0  0  0
    3.9203  -10.6679   18.6899 C   0  0  0  0  0  0  0  0  0  0  0  0
    9.9256   -4.2201   17.0108 C   0  0  0  0  0  0  0  0  0  0  0  0
    4.9075   -9.3980   16.9259 N   0  0  0  0  0  0  0  0  0  0  0  0
   10.0477   -3.5784   15.6657 F   0  0  0  0  0  0  0  0  0  0  0  0
   10.8391   -3.4130   19.1091 C   0  0  0  0  0  0  0  0  0  0  0  0
    8.7409   -6.9236   15.7937 C   0  0  0  0  0  0  0  0  0  0  0  0
    6.8451   -7.7167   17.2786 C   0  0  0  0  0  0  0  0  0  0  0  0
    1.3627  -10.6697   17.3256 C   0  0  0  0  0  0  0  0  0  0  0  0
    8.6259   -0.6134   26.4585 C   0  0  0  0  0  0  0  0  0  0  0  0
    9.6568   -5.9831   18.2674 C   0  0  0  0  0  0  0  0  0  0  0  0
   11.3903   -2.4204   19.7451 O   0  0  0  0  0  0  0  0  0  0  0  0
    4.7271   -8.8466   15.4086 C   0  0  0  0  0  0  0  0  0  0  0  0
    6.0356   -8.4872   14.7865 C   0  0  0  0  0  0  0  0  0  0  0  0
    8.5070   -5.7309   16.4417 C   0  0  0  0  0  0  0  0  0  0  0  0
    1.6881  -12.5513   20.9200 C   0  0  0  0  0  0  0  0  0  0  0  0
    8.7717    1.2029   24.3298 C   0  0  0  0  0  0  0  0  0  0  0  0
    5.8446   -9.0058   17.8330 C   0  0  0  0  0  0  0  0  0  0  0  0
    0.3506  -11.7224   19.1150 N   0  0  0  0  0  0  0  0  0  0  0  0
    9.4839   -5.3534   17.1545 C   0  0  0  0  0  0  0  0  0  0  0  0
    3.8255  -10.0324   17.3678 C   0  0  0  0  0  0  0  0  0  0  0  0
    0.4497  -12.4057   20.0959 C   0  0  0  0  0  0  0  0  0  0  0  0
    2.5930   -9.9946   16.6627 C   0  0  0  0  0  0  0  0  0  0  0  0
    9.3587   -7.3484   18.3423 O   0  0  0  0  0  0  0  0  0  0  0  0
    1.6252  -11.2051   18.5333 C   0  0  0  0  0  0  0  0  0  0  0  0
    7.8562   -8.0329   16.1880 N   0  0  0  0  0  0  0  0  0  0  0  0
  1  2  1  0
  1 18  1  0
  1 25  1  0
  3  9  4  0
  3 16  2  0
  3 19  4  0
  4  7  4  0
  4 10  4  0
  4 24  3  0
  4 30  4  0
  4 33  4  0
  5 11  4  0
  5 14  4  0
  6 32  2  0
  6 34  2  0
  7 24  4  0
  7 33  2  0
  8 26  2  0
  9 14  4  0
 10 29  4  0
 11 13  1  0
 11 27  2  0
 11 28  4  0
 11 31  4  0
 12 16  2  0
 12 21  1  0
 12 26  1  0
 12 29  1  0
 13 20  1  0
 13 29  4  0
 14 20  1  0
 15 20  4  0
 15 23  1  0
 15 34  1  0
 16 26  1  0
 16 34  1  0
 17 31  4  0
 17 33  4  0
 19 28  4  0
 20 27  2  0
 20 29  3  0
 20 34  1  0
 22 25  4  0
 23 28  1  0
 24 30  4  0
 27 30  4  0
 27 33  4  0
 29 31  4  0
M  END
$$$$

 Created by Python create_sdf_string function

 34 36  0  0  0  0  0  0  0  0999 V2000
    9.2202   -0.0254   25.1259 N   0  0  0  0  0  0  0  0  0  0  0  0
    9.7667   -1.1079   24.1414 C   0  0  0  0  0  0  0  0  0  0  0  0
   10.1166   -5.7313   19.4633 C   0  0  0  0  0  0  0  0  0  0  0  0
    2.7698  -11.3181   19.1340 C   0  0  0  0  0  0  0  0  0  0  0  0
   10.5745   -3.2279   17.8333 C   0  0  0  0  0  0  0  0  0  0  0  0
    7.2547   -8.6347   15.1346 C   0  0  0  0  0  0  0  0  0  0  0  0
    2.8154  -12.0200   20.2822 N   0  0  0  0  0  0  0  0  0  0  0  0
    6.1166   -9.2354   18.8842 O   0  0  0  0  0  0  0  0  0  0  0  0
   10.5932   -4.5334   19.8391 C   0  0  0  0  0  0  0  0  0  0  0  0
    3.8757  -10.7041   18.5711 C   0  0  0  0  0  0  0  0  0  0  0  0
   10.0026   -4.0544   16.9673 C   0  0  0  0  0  0  0  0  0  0  0  0
    4.9012   -9.3024   16.8847 N   0  0  0  0  0  0  0  0  0  0  0  0
    9.9689   -3.6181   15.6847 F   0  0  0  0  0  0  0  0  0  0  0  0
   10.8270   -3.4191   19.1458 C   0  0  0  0  0  0  0  0  0  0  0  0
    8.7421   -6.9759   15.7733 C   0  0  0  0  0  0  0  0  0  0  0  0
    6.8140   -7.8395   17.3009 C   0  0  0  0  0  0  0  0  0  0  0  0
    1.4634  -10.5854   17.2883 C   0  0  0  0  0  0  0  0  0  0  0  0
    8.6397   -0.5672   26.3523 C   0  0  0  0  0  0  0  0  0  0  0  0
    9.6399   -6.0405   18.3287 C   0  0  0  0  0  0  0  0  0  0  0  0
   11.3709   -2.4261   19.7687 O   0  0  0  0  0  0  0  0  0  0  0  0
    4.8173   -8.9118   15.4692 C   0  0  0  0  0  0  0  0  0  0  0  0
    5.9039   -8.4916   14.8132 C   0  0  0  0  0  0  0  0  0  0  0  0
    8.5271   -5.6959   16.2785 C   0  0  0  0  0  0  0  0  0  0  0  0
    1.7046  -12.5342   20.8290 C   0  0  0  0  0  0  0  0  0  0  0  0
    8.7551    1.1749   24.4016 C   0  0  0  0  0  0  0  0  0  0  0  0
    5.9362   -8.8806   17.7307 C   0  0  0  0  0  0  0  0  0  0  0  0
    0.4272  -11.7707   19.0520 N   0  0  0  0  0  0  0  0  0  0  0  0
    9.4309   -5.2480   17.2411 C   0  0  0  0  0  0  0  0  0  0  0  0
    3.7961  -10.0047   17.4055 C   0  0  0  0  0  0  0  0  0  0  0  0
    0.4931  -12.4039   20.2069 C   0  0  0  0  0  0  0  0  0  0  0  0
    2.5928   -9.9972   16.7659 C   0  0  0  0  0  0  0  0  0  0  0  0
    9.3217   -7.3101   18.2925 O   0  0  0  0  0  0  0  0  0  0  0  0
    1.5453  -11.2236   18.4892 C   0  0  0  0  0  0  0  0  0  0  0  0
    7.7713   -7.9473   16.2104 N   0  0  0  0  0  0  0  0  0  0  0  0
  1  2  1  0
  1 18  1  0
  1 25  1  0
  3  9  4  0
  3 19  4  0
  4  7  4  0
  4 10  4  0
  4 33  4  0
  5 11  4  0
  5 14  4  0
  6 22  1  0
  6 34  1  0
  7 24  4  0
  8 26  2  0
  9 14  4  0
 10 29  4  0
 11 13  1  0
 11 28  4  0
 12 21  1  0
 12 26  1  0
 12 29  1  0
 14 20  1  0
 15 23  1  0
 15 34  1  0
 16 26  1  0
 16 34  1  0
 17 31  4  0
 17 33  4  0
 19 28  4  0
 19 32  1  0
 21 22  1  0
 23 28  1  0
 24 30  4  0
 27 30  4  0
 27 33  4  0
 29 31  4  0
M  END
$$$$

 Created by Python create_sdf_string function

 34 45  0  0  0  0  0  0  0  0999 V2000
    9.2322    0.0113   25.1317 N   0  0  0  0  0  0  0  0  0  0  0  0
    9.9027   -1.1573   24.1295 C   0  0  0  0  0  0  0  0  0  0  0  0
   10.0651   -5.6878   19.4311 C   0  0  0  0  0  0  0  0  0  0  0  0
    2.8765  -11.2426   19.0977 C   0  0  0  0  0  0  0  0  0  0  0  0
   10.6349   -3.2561   17.7078 C   0  0  0  0  0  0  0  0  0  0  0  0
    7.3860   -8.7086   15.1151 C   0  0  0  0  0  0  0  0  0  0  0  0
    2.7979  -12.0431   20.3340 N   0  0  0  0  0  0  0  0  0  0  0  0
    5.9802   -9.2816   18.8906 O   0  0  0  0  0  0  0  0  0  0  0  0
   10.5325   -4.4788   19.7142 C   0  0  0  0  0  0  0  0  0  0  0  0
    3.8460  -10.7093   18.5753 C   0  0  0  0  0  0  0  0  0  0  0  0
    9.9349   -3.9778   17.0622 C   0  0  0  0  0  0  0  0  0  0  0  0
    4.7969   -9.3745   16.7390 I   0  0  0  0  0  0  0  0  0  0  0  0
   10.9438   -3.3002   19.2818 C   0  0  0  0  0  0  0  0  0  0  0  0
    8.7989   -7.0056   15.7788 C   0  0  0  0  0  0  0  0  0  0  0  0
    6.7747   -7.7475   17.3320 C   0  0  0  0  0  0  0  0  0  0  0  0
    1.3497  -10.4662   17.3290 C   0  0  0  0  0  0  0  0  0  0  0  0
    8.6807   -0.6157   26.3724 C   0  0  0  0  0  0  0  0  0  0  0  0
    9.6747   -5.9763   18.2283 C   0  0  0  0  0  0  0  0  0  0  0  0
   11.3314   -2.4021   19.6866 O   0  0  0  0  0  0  0  0  0  0  0  0
    4.8772   -8.9548   15.2561 C   0  0  0  0  0  0  0  0  0  0  0  0
    5.8649   -8.4107   14.9153 C   0  0  0  0  0  0  0  0  0  0  0  0
    8.6153   -5.6430   16.2197 C   0  0  0  0  0  0  0  0  0  0  0  0
    1.6207  -12.4743   20.8037 C   0  0  0  0  0  0  0  0  0  0  0  0
    8.8501    1.0493   24.3804 C   0  0  0  0  0  0  0  0  0  0  0  0
    0.3998  -11.7155   19.1496 N   0  0  0  0  0  0  0  0  0  0  0  0
    9.5638   -5.3045   17.3138 C   0  0  0  0  0  0  0  0  0  0  0  0
    3.8130   -9.9717   17.5280 C   0  0  0  0  0  0  0  0  0  0  0  0
    0.5055  -12.3964   20.2664 C   0  0  0  0  0  0  0  0  0  0  0  0
    2.5665   -9.9478   16.6255 C   0  0  0  0  0  0  0  0  0  0  0  0
    9.1809   -7.2621   18.2129 O   0  0  0  0  0  0  0  0  0  0  0  0
    7.8254   -7.9437   16.2543 N   0  0  0  0  0  0  0  0  0  0  0  0
    9.8871   -3.6533   15.8401 He  0  0  0  0  0  0  0  0  0  0  0  0
    6.0063   -8.7665   17.9241 He  0  0  0  0  0  0  0  0  0  0  0  0
    1.4741  -11.1178   18.4267 He  0  0  0  0  0  0  0  0  0  0  0  0
  1  2  1  0
  1  6  1  0
  1 10  2  0
  1 17  1  0
  1 24  1  0
  1 31  1  0
  2 22  3  0
  3  9  4  0
  3 18  4  0
  4  7  4  0
  4 10  4  0
  4 16  2  0
  4 21  2  0
  5 11  4  0
  5 13  4  0
  5 21  2  0
  6 21  1  0
  6 23  1  0
  6 31  1  0
  7 23  4  0
  8 10  1  0
  9 12  3  0
  9 13  4  0
 10 12  4  0
 10 27  4  0
 11 22  1  0
 11 26  4  0
 12 20  1  0
 12 23  3  0
 12 27  1  0
 13 19  3  0
 14 15  1  0
 14 22  3  0
 14 31  1  0
 15 22  2  0
 15 31  1  0
 16 29  4  0
 17 29  3  0
 18 26  4  0
 18 30  1  0
 20 21  1  0
 22 26  1  0
 23 28  4  0
 25 28  4  0
 27 29  4  0
M  END
$$$$

 Created by Python create_sdf_string function

 34 36  0  0  0  0  0  0  0  0999 V2000
    9.2906   -0.0796   25.0949 N   0  0  0  0  0  0  0  0  0  0  0  0
    9.8634   -1.1418   24.1486 C   0  0  0  0  0  0  0  0  0  0  0  0
   10.1180   -5.7002   19.4797 C   0  0  0  0  0  0  0  0  0  0  0  0
    2.7458  -11.2676   19.1230 C   0  0  0  0  0  0  0  0  0  0  0  0
   10.6001   -3.2243   17.8294 C   0  0  0  0  0  0  0  0  0  0  0  0
    7.2751   -8.7495   15.1463 C   0  0  0  0  0  0  0  0  0  0  0  0
    2.8195  -11.9909   20.2910 N   0  0  0  0  0  0  0  0  0  0  0  0
    5.9870   -9.1848   18.9169 O   0  0  0  0  0  0  0  0  0  0  0  0
   10.6172   -4.5086   19.8490 C   0  0  0  0  0  0  0  0  0  0  0  0
    3.8393  -10.6638   18.5573 C   0  0  0  0  0  0  0  0  0  0  0  0
   10.0089   -4.0454   17.0163 C   0  0  0  0  0  0  0  0  0  0  0  0
    4.9087   -9.2876   16.8323 N   0  0  0  0  0  0  0  0  0  0  0  0
    9.8507   -3.5335   15.7308 O   0  0  0  0  0  0  0  0  0  0  0  0
   10.8616   -3.3764   19.1461 C   0  0  0  0  0  0  0  0  0  0  0  0
    8.7750   -7.0136   15.7626 C   0  0  0  0  0  0  0  0  0  0  0  0
    6.7811   -7.7777   17.3049 C   0  0  0  0  0  0  0  0  0  0  0  0
    1.4309  -10.4765   17.3171 C   0  0  0  0  0  0  0  0  0  0  0  0
    8.6815   -0.5819   26.3137 C   0  0  0  0  0  0  0  0  0  0  0  0
    9.6092   -6.0502   18.3073 C   0  0  0  0  0  0  0  0  0  0  0  0
   11.3735   -2.3905   19.7459 O   0  0  0  0  0  0  0  0  0  0  0  0
    4.8893   -9.0297   15.3795 C   0  0  0  0  0  0  0  0  0  0  0  0
    5.8822   -8.3035   14.8175 C   0  0  0  0  0  0  0  0  0  0  0  0
    8.6479   -5.6762   16.1450 C   0  0  0  0  0  0  0  0  0  0  0  0
    1.7082  -12.5042   20.8325 C   0  0  0  0  0  0  0  0  0  0  0  0
    8.8086    1.1145   24.4110 C   0  0  0  0  0  0  0  0  0  0  0  0
    5.9240   -8.8401   17.7351 C   0  0  0  0  0  0  0  0  0  0  0  0
    0.4099  -11.6987   19.0836 N   0  0  0  0  0  0  0  0  0  0  0  0
    9.4764   -5.2452   17.2231 C   0  0  0  0  0  0  0  0  0  0  0  0
    3.7733   -9.9583   17.4063 C   0  0  0  0  0  0  0  0  0  0  0  0
    0.4967  -12.3504   20.2202 C   0  0  0  0  0  0  0  0  0  0  0  0
    2.5708   -9.8950   16.7790 C   0  0  0  0  0  0  0  0  0  0  0  0
    9.2661   -7.2741   18.3024 O   0  0  0  0  0  0  0  0  0  0  0  0
    1.5208  -11.1491   18.5067 C   0  0  0  0  0  0  0  0  0  0  0  0
    7.7986   -7.9499   16.2604 N   0  0  0  0  0  0  0  0  0  0  0  0
  1  2  1  0
  1 18  1  0
  1 25  1  0
  3  9  4  0
  3 19  4  0
  4  7  4  0
  4 10  4  0
  4 33  4  0
  5 11  4  0
  5 14  4  0
  6 22  1  0
  6 34  1  0
  7 24  4  0
  8 26  2  0
  9 14  4  0
 10 29  4  0
 11 13  1  0
 11 28  4  0
 12 21  1  0
 12 26  1  0
 12 29  1  0
 14 20  1  0
 15 23  1  0
 15 34  1  0
 16 26  1  0
 16 34  1  0
 17 31  4  0
 17 33  4  0
 19 28  4  0
 19 32  1  0
 21 22  1  0
 23 28  1  0
 24 30  4  0
 27 30  4  0
 27 33  4  0
 29 31  4  0
M  END
$$$$

 Created by Python create_sdf_string function

 34 43  0  0  0  0  0  0  0  0999 V2000
    9.3273   -0.1610   25.2115 N   0  0  0  0  0  0  0  0  0  0  0  0
   10.1297   -5.7769   19.4444 C   0  0  0  0  0  0  0  0  0  0  0  0
    2.6584  -11.2199   19.0911 C   0  0  0  0  0  0  0  0  0  0  0  0
   10.7127   -3.2939   17.7532 C   0  0  0  0  0  0  0  0  0  0  0  0
    7.3782   -8.6743   15.1269 C   0  0  0  0  0  0  0  0  0  0  0  0
    2.8058  -12.0666   20.3814 N   0  0  0  0  0  0  0  0  0  0  0  0
    5.7911   -9.1728   18.9408 O   0  0  0  0  0  0  0  0  0  0  0  0
   10.5770   -4.5979   19.6324 C   0  0  0  0  0  0  0  0  0  0  0  0
    9.9559   -4.1771   17.1395 C   0  0  0  0  0  0  0  0  0  0  0  0
    4.7679   -9.3015   16.8661 N   0  0  0  0  0  0  0  0  0  0  0  0
    9.9157   -3.5701   15.7512 O   0  0  0  0  0  0  0  0  0  0  0  0
   10.8695   -3.4615   19.1648 C   0  0  0  0  0  0  0  0  0  0  0  0
    8.8122   -6.9878   15.7262 C   0  0  0  0  0  0  0  0  0  0  0  0
    6.6668   -7.7798   17.3184 C   0  0  0  0  0  0  0  0  0  0  0  0
    1.4079  -10.4519   17.3834 C   0  0  0  0  0  0  0  0  0  0  0  0
    8.7107   -0.4978   26.4162 C   0  0  0  0  0  0  0  0  0  0  0  0
    9.5851   -6.2054   18.2856 C   0  0  0  0  0  0  0  0  0  0  0  0
   11.3457   -2.4154   19.7058 O   0  0  0  0  0  0  0  0  0  0  0  0
    5.7807   -8.3334   14.6674 C   0  0  0  0  0  0  0  0  0  0  0  0
    8.5156   -5.6890   16.1268 C   0  0  0  0  0  0  0  0  0  0  0  0
    1.6450  -12.5003   20.7623 C   0  0  0  0  0  0  0  0  0  0  0  0
    8.8496    1.1309   24.4274 C   0  0  0  0  0  0  0  0  0  0  0  0
    5.8008   -8.6303   17.6815 C   0  0  0  0  0  0  0  0  0  0  0  0
    0.4311  -11.6168   19.1312 N   0  0  0  0  0  0  0  0  0  0  0  0
    9.4731   -5.2878   17.4031 C   0  0  0  0  0  0  0  0  0  0  0  0
    3.6014   -9.9695   17.4984 C   0  0  0  0  0  0  0  0  0  0  0  0
    0.5702  -12.2999   20.0869 C   0  0  0  0  0  0  0  0  0  0  0  0
    2.4851  -10.0451   16.8236 C   0  0  0  0  0  0  0  0  0  0  0  0
    9.2402   -7.4514   18.0917 O   0  0  0  0  0  0  0  0  0  0  0  0
    1.5911  -11.1365   18.4442 C   0  0  0  0  0  0  0  0  0  0  0  0
    7.8588   -8.0430   16.3465 N   0  0  0  0  0  0  0  0  0  0  0  0
    9.8789   -1.0869   24.1185 He  0  0  0  0  0  0  0  0  0  0  0  0
    3.8977  -10.6812   18.5771 He  0  0  0  0  0  0  0  0  0  0  0  0
    5.0112   -8.9501   15.4022 He  0  0  0  0  0  0  0  0  0  0  0  0
  1 12  3  0
  1 16  1  0
  1 22  1  0
  3  6  4  0
  3 23  2  0
  3 30  4  0
  4  9  4  0
  4 12  4  0
  5  9  2  0
  5 19  1  0
  5 31  1  0
  6 21  4  0
  6 28  2  0
  7 23  2  0
  7 31  1  0
  8 12  4  0
  9 11  1  0
  9 25  4  0
 10 13  2  0
 10 23  1  0
 10 26  1  0
 12 18  1  0
 12 19  2  0
 13 18  3  0
 13 20  1  0
 13 31  1  0
 14 23  1  0
 14 31  1  0
 15 19  4  0
 15 28  4  0
 15 30  4  0
 16 23  1  0
 16 25  4  0
 16 30  4  0
 17 22  1  0
 17 25  4  0
 17 29  1  0
 18 25  1  0
 18 28  1  0
 21 27  4  0
 24 27  4  0
 24 30  4  0
 26 28  4  0
M  END
$$$$

 Created by Python create_sdf_string function

 34 36  0  0  0  0  0  0  0  0999 V2000
    9.3661   -0.1192   25.1463 N   0  0  0  0  0  0  0  0  0  0  0  0
    9.8382   -1.1143   24.1527 C   0  0  0  0  0  0  0  0  0  0  0  0
   10.1223   -5.7925   19.4379 C   0  0  0  0  0  0  0  0  0  0  0  0
    2.7334  -11.2663   19.1447 C   0  0  0  0  0  0  0  0  0  0  0  0
   10.6332   -3.2906   17.8192 C   0  0  0  0  0  0  0  0  0  0  0  0
    7.2608   -8.7366   15.1286 C   0  0  0  0  0  0  0  0  0  0  0  0
    2.8051  -12.0070   20.2935 N   0  0  0  0  0  0  0  0  0  0  0  0
    5.8219   -9.0819   18.9323 O   0  0  0  0  0  0  0  0  0  0  0  0
   10.6338   -4.6111   19.7999 C   0  0  0  0  0  0  0  0  0  0  0  0
    3.8299  -10.6353   18.5885 C   0  0  0  0  0  0  0  0  0  0  0  0
    9.9855   -4.1077   17.0134 C   0  0  0  0  0  0  0  0  0  0  0  0
    4.8165   -9.2381   16.8488 N   0  0  0  0  0  0  0  0  0  0  0  0
    9.8491   -3.6004   15.7609 O   0  0  0  0  0  0  0  0  0  0  0  0
   10.8777   -3.4836   19.1384 C   0  0  0  0  0  0  0  0  0  0  0  0
    8.7889   -7.0464   15.7598 C   0  0  0  0  0  0  0  0  0  0  0  0
    6.6939   -7.7650   17.2783 C   0  0  0  0  0  0  0  0  0  0  0  0
    1.4193  -10.4788   17.3464 C   0  0  0  0  0  0  0  0  0  0  0  0
    8.7117   -0.5213   26.3904 C   0  0  0  0  0  0  0  0  0  0  0  0
    9.5905   -6.1623   18.2574 C   0  0  0  0  0  0  0  0  0  0  0  0
   11.3729   -2.4602   19.7619 O   0  0  0  0  0  0  0  0  0  0  0  0
    4.9170   -9.0373   15.4527 C   0  0  0  0  0  0  0  0  0  0  0  0
    5.8416   -8.2976   14.8224 C   0  0  0  0  0  0  0  0  0  0  0  0
    8.5434   -5.6882   16.1434 C   0  0  0  0  0  0  0  0  0  0  0  0
    1.6923  -12.5219   20.8056 C   0  0  0  0  0  0  0  0  0  0  0  0
    8.8319    1.1419   24.4596 C   0  0  0  0  0  0  0  0  0  0  0  0
    5.8062   -8.7596   17.7467 C   0  0  0  0  0  0  0  0  0  0  0  0
    0.3953  -11.6805   19.0970 N   0  0  0  0  0  0  0  0  0  0  0  0
    9.4352   -5.2947   17.2086 C   0  0  0  0  0  0  0  0  0  0  0  0
    3.7322   -9.9397   17.4449 C   0  0  0  0  0  0  0  0  0  0  0  0
    0.4970  -12.3490   20.1994 C   0  0  0  0  0  0  0  0  0  0  0  0
    2.5468   -9.9018   16.8145 C   0  0  0  0  0  0  0  0  0  0  0  0
    9.2604   -7.4110   18.1946 O   0  0  0  0  0  0  0  0  0  0  0  0
    1.5192  -11.1355   18.5265 C   0  0  0  0  0  0  0  0  0  0  0  0
    7.7841   -7.9620   16.3076 N   0  0  0  0  0  0  0  0  0  0  0  0
  1  2  1  0
  1 18  1  0
  1 25  1  0
  3  9  4  0
  3 19  4  0
  4  7  4  0
  4 10  4  0
  4 33  4  0
  5 11  4  0
  5 14  4  0
  6 22  1  0
  6 34  1  0
  7 24  4  0
  8 26  2  0
  9 14  4  0
 10 29  4  0
 11 13  1  0
 11 28  4  0
 12 21  1  0
 12 26  1  0
 12 29  1  0
 14 20  1  0
 15 23  1  0
 15 34  1  0
 16 26  1  0
 16 34  1  0
 17 31  4  0
 17 33  4  0
 19 28  4  0
 19 32  1  0
 21 22  1  0
 23 28  1  0
 24 30  4  0
 27 30  4  0
 27 33  4  0
 29 31  4  0
M  END
$$$$

 Created by Python create_sdf_string function

 34 48  0  0  0  0  0  0  0  0999 V2000
    9.3141   -0.1644   25.1237 N   0  0  0  0  0  0  0  0  0  0  0  0
    9.8472   -1.0815   24.2013 C   0  0  0  0  0  0  0  0  0  0  0  0
   10.1764   -5.7738   19.5837 C   0  0  0  0  0  0  0  0  0  0  0  0
    2.6695  -11.1924   19.2366 C   0  0  0  0  0  0  0  0  0  0  0  0
   10.6119   -3.3359   17.8956 C   0  0  0  0  0  0  0  0  0  0  0  0
    7.2089   -8.6917   15.1152 C   0  0  0  0  0  0  0  0  0  0  0  0
    2.8697  -12.0719   20.3754 N   0  0  0  0  0  0  0  0  0  0  0  0
    5.9509   -9.0269   18.9860 O   0  0  0  0  0  0  0  0  0  0  0  0
   10.5671   -4.5769   19.7402 C   0  0  0  0  0  0  0  0  0  0  0  0
    3.9910  -10.6689   18.7100 C   0  0  0  0  0  0  0  0  0  0  0  0
    9.9555   -4.1338   16.9322 C   0  0  0  0  0  0  0  0  0  0  0  0
    4.7125   -9.2046   16.9370 N   0  0  0  0  0  0  0  0  0  0  0  0
    9.7246   -3.6341   15.7660 O   0  0  0  0  0  0  0  0  0  0  0  0
   10.9027   -3.5348   19.1347 C   0  0  0  0  0  0  0  0  0  0  0  0
    8.8415   -7.0337   15.8499 C   0  0  0  0  0  0  0  0  0  0  0  0
    6.7156   -7.8266   17.2343 C   0  0  0  0  0  0  0  0  0  0  0  0
    1.4851  -10.4857   17.4195 C   0  0  0  0  0  0  0  0  0  0  0  0
    8.7417   -0.5769   26.5284 C   0  0  0  0  0  0  0  0  0  0  0  0
    9.6056   -6.1572   18.3149 C   0  0  0  0  0  0  0  0  0  0  0  0
   11.3480   -2.5164   19.7478 O   0  0  0  0  0  0  0  0  0  0  0  0
    5.0740   -9.0885   15.4466 C   0  0  0  0  0  0  0  0  0  0  0  0
    8.6835   -5.6252   16.0720 C   0  0  0  0  0  0  0  0  0  0  0  0
    1.6151  -12.4709   20.7351 C   0  0  0  0  0  0  0  0  0  0  0  0
    5.9088   -8.7088   17.7182 C   0  0  0  0  0  0  0  0  0  0  0  0
    0.4122  -11.6873   19.1325 F   0  0  0  0  0  0  0  0  0  0  0  0
    9.3840   -5.2030   17.1410 C   0  0  0  0  0  0  0  0  0  0  0  0
    3.8926   -9.9291   17.5393 C   0  0  0  0  0  0  0  0  0  0  0  0
    0.4157  -12.2482   20.2618 C   0  0  0  0  0  0  0  0  0  0  0  0
    2.5409   -9.9490   16.8201 C   0  0  0  0  0  0  0  0  0  0  0  0
    9.3315   -7.3795   18.2273 O   0  0  0  0  0  0  0  0  0  0  0  0
    1.3758  -11.3120   18.4611 C   0  0  0  0  0  0  0  0  0  0  0  0
    7.8603   -8.1008   16.3381 N   0  0  0  0  0  0  0  0  0  0  0  0
    5.7309   -8.2962   14.9079 He  0  0  0  0  0  0  0  0  0  0  0  0
    8.7871    0.9928   24.4390 He  0  0  0  0  0  0  0  0  0  0  0  0
  1  2  1  0
  1 18  1  0
  1 32  1  0
  2  8  2  0
  3  9  4  0
  3 19  4  0
  4  6  2  0
  4  7  4  0
  4 10  4  0
  4 15  3  0
  4 17  1  0
  4 31  4  0
  5  7  4  0
  5  8  1  0
  5 11  4  0
  5 14  4  0
  5 22  3  0
  5 26  1  0
  6 28  2  0
  6 32  1  0
  7 15  1  0
  7 23  4  0
  8 20  4  0
  8 24  2  0
  8 26  4  0
  9 14  4  0
 10 27  4  0
 10 29  1  0
 11 13  1  0
 12 21  1  0
 12 24  1  0
 14 20  1  0
 15 22  1  0
 15 26  3  0
 15 32  1  0
 16 24  1  0
 16 32  1  0
 17 29  4  0
 17 31  4  0
 19 25  1  0
 19 26  4  0
 19 30  1  0
 21 24  4  0
 22 26  1  0
 23 28  4  0
 25 28  4  0
 25 31  4  0
 27 29  4  0
M  END
$$$$

 Created by Python create_sdf_string function

 34 36  0  0  0  0  0  0  0  0999 V2000
    9.3097   -0.1381   25.1463 N   0  0  0  0  0  0  0  0  0  0  0  0
    9.8539   -1.1629   24.1920 C   0  0  0  0  0  0  0  0  0  0  0  0
   10.1148   -5.8149   19.4962 C   0  0  0  0  0  0  0  0  0  0  0  0
    2.7089  -11.2811   19.1806 C   0  0  0  0  0  0  0  0  0  0  0  0
   10.5833   -3.3094   17.8544 C   0  0  0  0  0  0  0  0  0  0  0  0
    7.2253   -8.6757   15.0621 C   0  0  0  0  0  0  0  0  0  0  0  0
    2.7898  -12.0089   20.3389 N   0  0  0  0  0  0  0  0  0  0  0  0
    5.9408   -8.9884   18.9643 O   0  0  0  0  0  0  0  0  0  0  0  0
   10.6475   -4.6224   19.8657 C   0  0  0  0  0  0  0  0  0  0  0  0
    3.8358  -10.6399   18.6447 C   0  0  0  0  0  0  0  0  0  0  0  0
    9.9478   -4.0907   17.0021 C   0  0  0  0  0  0  0  0  0  0  0  0
    4.8600   -9.2297   16.9262 N   0  0  0  0  0  0  0  0  0  0  0  0
    9.7437   -3.5975   15.7904 O   0  0  0  0  0  0  0  0  0  0  0  0
   10.8550   -3.5161   19.1499 C   0  0  0  0  0  0  0  0  0  0  0  0
    8.8294   -7.1169   15.8068 C   0  0  0  0  0  0  0  0  0  0  0  0
    6.7805   -7.7729   17.2728 C   0  0  0  0  0  0  0  0  0  0  0  0
    1.4602  -10.4944   17.3574 C   0  0  0  0  0  0  0  0  0  0  0  0
    8.7585   -0.5705   26.4470 C   0  0  0  0  0  0  0  0  0  0  0  0
    9.6185   -6.1323   18.2856 C   0  0  0  0  0  0  0  0  0  0  0  0
   11.3842   -2.5070   19.7710 O   0  0  0  0  0  0  0  0  0  0  0  0
    4.9373   -9.1540   15.4694 C   0  0  0  0  0  0  0  0  0  0  0  0
    5.8187   -8.3025   14.9176 C   0  0  0  0  0  0  0  0  0  0  0  0
    8.6540   -5.7531   16.0925 C   0  0  0  0  0  0  0  0  0  0  0  0
    1.6486  -12.4910   20.8572 C   0  0  0  0  0  0  0  0  0  0  0  0
    8.7456    1.0312   24.4751 C   0  0  0  0  0  0  0  0  0  0  0  0
    5.8629   -8.7244   17.7828 C   0  0  0  0  0  0  0  0  0  0  0  0
    0.3701  -11.6875   19.1144 N   0  0  0  0  0  0  0  0  0  0  0  0
    9.4638   -5.3092   17.1844 C   0  0  0  0  0  0  0  0  0  0  0  0
    3.7858   -9.9140   17.5027 C   0  0  0  0  0  0  0  0  0  0  0  0
    0.4368  -12.3349   20.2612 C   0  0  0  0  0  0  0  0  0  0  0  0
    2.6060   -9.8997   16.8693 C   0  0  0  0  0  0  0  0  0  0  0  0
    9.2904   -7.3970   18.2453 O   0  0  0  0  0  0  0  0  0  0  0  0
    1.4986  -11.1528   18.5463 C   0  0  0  0  0  0  0  0  0  0  0  0
    7.7879   -7.9961   16.2543 N   0  0  0  0  0  0  0  0  0  0  0  0
  1  2  1  0
  1 18  1  0
  1 25  1  0
  3  9  4  0
  3 19  4  0
  4  7  4  0
  4 10  4  0
  4 33  4  0
  5 11  4  0
  5 14  4  0
  6 22  1  0
  6 34  1  0
  7 24  4  0
  8 26  2  0
  9 14  4  0
 10 29  4  0
 11 13  1  0
 11 28  4  0
 12 21  1  0
 12 26  1  0
 12 29  1  0
 14 20  1  0
 15 23  1  0
 15 34  1  0
 16 26  1  0
 16 34  1  0
 17 31  4  0
 17 33  4  0
 19 28  4  0
 19 32  1  0
 21 22  1  0
 23 28  1  0
 24 30  4  0
 27 30  4  0
 27 33  4  0
 29 31  4  0
M  END
$$$$

 Created by Python create_sdf_string function

 34 51  0  0  0  0  0  0  0  0999 V2000
    9.4624   -0.1381   25.1111 N   0  0  0  0  0  0  0  0  0  0  0  0
    9.8437   -1.1366   24.2069 C   0  0  0  0  0  0  0  0  0  0  0  0
   10.1637   -5.7217   19.4714 C   0  0  0  0  0  0  0  0  0  0  0  0
    2.6801  -11.3206   19.2374 C   0  0  0  0  0  0  0  0  0  0  0  0
   10.5874   -3.3271   17.8065 C   0  0  0  0  0  0  0  0  0  0  0  0
    7.3436   -8.7567   14.9885 C   0  0  0  0  0  0  0  0  0  0  0  0
    2.8216  -12.0536   20.2192 N   0  0  0  0  0  0  0  0  0  0  0  0
   10.6391   -4.6307   19.8616 C   0  0  0  0  0  0  0  0  0  0  0  0
    3.9028  -10.6627   18.6760 C   0  0  0  0  0  0  0  0  0  0  0  0
   10.0135   -4.1262   16.9840 C   0  0  0  0  0  0  0  0  0  0  0  0
    4.8860   -9.2497   16.9796 N   0  0  0  0  0  0  0  0  0  0  0  0
    9.7724   -3.6245   15.8740 O   0  0  0  0  0  0  0  0  0  0  0  0
   10.8716   -3.5497   19.2385 C   0  0  0  0  0  0  0  0  0  0  0  0
    8.7164   -7.0691   15.8812 C   0  0  0  0  0  0  0  0  0  0  0  0
    6.8706   -7.7388   17.2915 C   0  0  0  0  0  0  0  0  0  0  0  0
    1.6048  -10.4157   17.4626 C   0  0  0  0  0  0  0  0  0  0  0  0
    8.7621   -0.4976   26.4484 C   0  0  0  0  0  0  0  0  0  0  0  0
    9.6449   -6.0310   18.1528 C   0  0  0  0  0  0  0  0  0  0  0  0
   11.4648   -2.5360   19.7615 O   0  0  0  0  0  0  0  0  0  0  0  0
    4.9944   -9.0174   15.5029 C   0  0  0  0  0  0  0  0  0  0  0  0
    5.7458   -8.3577   14.9607 C   0  0  0  0  0  0  0  0  0  0  0  0
    8.7348   -5.8144   16.1606 C   0  0  0  0  0  0  0  0  0  0  0  0
    1.7579  -12.4276   20.8056 C   0  0  0  0  0  0  0  0  0  0  0  0
    8.7336    1.0671   24.3934 C   0  0  0  0  0  0  0  0  0  0  0  0
    5.9225   -8.7154   17.7971 C   0  0  0  0  0  0  0  0  0  0  0  0
    0.2924  -11.6317   19.0954 N   0  0  0  0  0  0  0  0  0  0  0  0
    9.4115   -5.4078   17.0858 N   0  0  0  0  0  0  0  0  0  0  0  0
    3.7146   -9.9375   17.5061 C   0  0  0  0  0  0  0  0  0  0  0  0
    0.5123  -12.4128   20.3428 C   0  0  0  0  0  0  0  0  0  0  0  0
    2.6375   -9.9881   16.8585 C   0  0  0  0  0  0  0  0  0  0  0  0
    9.2474   -7.3448   18.2752 O   0  0  0  0  0  0  0  0  0  0  0  0
    1.4406  -11.1089   18.6809 C   0  0  0  0  0  0  0  0  0  0  0  0
    7.8138   -8.1027   16.1476 N   0  0  0  0  0  0  0  0  0  0  0  0
    5.9619   -9.0002   18.9339 He  0  0  0  0  0  0  0  0  0  0  0  0
  1  2  1  0
  1  3  4  0
  1 17  1  0
  1 24  1  0
  1 29  1  0
  2 12  3  0
  2 18  2  0
  3  8  4  0
  3 12  2  0
  3 18  4  0
  3 21  1  0
  3 27  4  0
  4  7  4  0
  4  9  4  0
  4 20  1  0
  4 32  4  0
  5 10  4  0
  5 13  4  0
  6 21  1  0
  6 33  1  0
  7 23  4  0
  8 13  4  0
  8 16  4  0
  9 28  4  0
 10 12  1  0
 10 27  4  0
 11 20  1  0
 11 25  1  0
 11 28  1  0
 12 22  4  0
 13 16  2  0
 13 19  1  0
 14 22  1  0
 14 33  1  0
 15 25  1  0
 15 33  1  0
 16 30  4  0
 16 32  4  0
 18 23  4  0
 18 27  4  0
 18 31  1  0
 19 25  3  0
 20 21  1  0
 20 30  1  0
 22 27  1  0
 22 30  4  0
 22 33  4  0
 23 29  4  0
 26 29  4  0
 26 32  4  0
 28 30  4  0
M  END
$$$$

 Created by Python create_sdf_string function

 34 36  0  0  0  0  0  0  0  0999 V2000
    9.4359   -0.0893   25.1321 N   0  0  0  0  0  0  0  0  0  0  0  0
    9.8484   -1.1813   24.1860 C   0  0  0  0  0  0  0  0  0  0  0  0
   10.1342   -5.7911   19.4272 C   0  0  0  0  0  0  0  0  0  0  0  0
    2.7580  -11.2803   19.2090 C   0  0  0  0  0  0  0  0  0  0  0  0
   10.5945   -3.3199   17.8659 C   0  0  0  0  0  0  0  0  0  0  0  0
    7.2045   -8.7240   15.0652 C   0  0  0  0  0  0  0  0  0  0  0  0
    2.8206  -12.0193   20.3243 N   0  0  0  0  0  0  0  0  0  0  0  0
    5.9472   -8.9857   18.9723 O   0  0  0  0  0  0  0  0  0  0  0  0
   10.6587   -4.6431   19.8602 C   0  0  0  0  0  0  0  0  0  0  0  0
    3.8770  -10.6473   18.6504 C   0  0  0  0  0  0  0  0  0  0  0  0
    9.9755   -4.0992   16.9872 C   0  0  0  0  0  0  0  0  0  0  0  0
    4.9124   -9.2371   16.9555 N   0  0  0  0  0  0  0  0  0  0  0  0
    9.7731   -3.5945   15.8010 O   0  0  0  0  0  0  0  0  0  0  0  0
   10.8869   -3.5211   19.1731 C   0  0  0  0  0  0  0  0  0  0  0  0
    8.7669   -7.1394   15.7999 C   0  0  0  0  0  0  0  0  0  0  0  0
    6.8566   -7.7773   17.2935 C   0  0  0  0  0  0  0  0  0  0  0  0
    1.4947  -10.4385   17.4391 C   0  0  0  0  0  0  0  0  0  0  0  0
    8.7789   -0.5054   26.4101 C   0  0  0  0  0  0  0  0  0  0  0  0
    9.6370   -6.0756   18.2659 C   0  0  0  0  0  0  0  0  0  0  0  0
   11.4388   -2.5285   19.8148 O   0  0  0  0  0  0  0  0  0  0  0  0
    4.9101   -9.1113   15.4921 C   0  0  0  0  0  0  0  0  0  0  0  0
    5.7711   -8.3078   14.9158 C   0  0  0  0  0  0  0  0  0  0  0  0
    8.7012   -5.7726   16.0735 C   0  0  0  0  0  0  0  0  0  0  0  0
    1.7131  -12.5333   20.8605 C   0  0  0  0  0  0  0  0  0  0  0  0
    8.7451    1.0616   24.4164 C   0  0  0  0  0  0  0  0  0  0  0  0
    5.9180   -8.7259   17.7963 C   0  0  0  0  0  0  0  0  0  0  0  0
    0.3895  -11.6595   19.1785 N   0  0  0  0  0  0  0  0  0  0  0  0
    9.4929   -5.3365   17.1342 C   0  0  0  0  0  0  0  0  0  0  0  0
    3.8122   -9.9311   17.5197 C   0  0  0  0  0  0  0  0  0  0  0  0
    0.4917  -12.3562   20.2940 C   0  0  0  0  0  0  0  0  0  0  0  0
    2.6180   -9.8860   16.9137 C   0  0  0  0  0  0  0  0  0  0  0  0
    9.2341   -7.3290   18.2619 O   0  0  0  0  0  0  0  0  0  0  0  0
    1.5325  -11.1275   18.6010 C   0  0  0  0  0  0  0  0  0  0  0  0
    7.7762   -8.0405   16.2209 N   0  0  0  0  0  0  0  0  0  0  0  0
  1  2  1  0
  1 18  1  0
  1 25  1  0
  3  9  4  0
  3 19  4  0
  4  7  4  0
  4 10  4  0
  4 33  4  0
  5 11  4  0
  5 14  4  0
  6 22  1  0
  6 34  1  0
  7 24  4  0
  8 26  2  0
  9 14  4  0
 10 29  4  0
 11 13  1  0
 11 28  4  0
 12 21  1  0
 12 26  1  0
 12 29  1  0
 14 20  1  0
 15 23  1  0
 15 34  1  0
 16 26  1  0
 16 34  1  0
 17 31  4  0
 17 33  4  0
 19 28  4  0
 19 32  1  0
 21 22  1  0
 23 28  1  0
 24 30  4  0
 27 30  4  0
 27 33  4  0
 29 31  4  0
M  END
$$$$

 Created by Python create_sdf_string function

 34 43  0  0  0  0  0  0  0  0999 V2000
    9.3234   -0.1617   25.1516 N   0  0  0  0  0  0  0  0  0  0  0  0
    9.8933   -1.1419   24.1957 C   0  0  0  0  0  0  0  0  0  0  0  0
   10.2114   -5.8318   19.5003 C   0  0  0  0  0  0  0  0  0  0  0  0
    2.7170  -11.2362   19.1873 C   0  0  0  0  0  0  0  0  0  0  0  0
   10.5810   -3.3617   17.8270 C   0  0  0  0  0  0  0  0  0  0  0  0
    7.1747   -8.8144   14.9922 C   0  0  0  0  0  0  0  0  0  0  0  0
    2.8364  -11.9637   20.2723 C   0  0  0  0  0  0  0  0  0  0  0  0
    5.7521   -8.9683   18.9231 O   0  0  0  0  0  0  0  0  0  0  0  0
   10.7082   -4.5693   19.8940 C   0  0  0  0  0  0  0  0  0  0  0  0
    4.0210  -10.6207   18.6805 C   0  0  0  0  0  0  0  0  0  0  0  0
    9.9869   -4.0508   16.9852 C   0  0  0  0  0  0  0  0  0  0  0  0
    4.9644   -9.3551   17.0192 N   0  0  0  0  0  0  0  0  0  0  0  0
    9.8163   -3.6114   15.9264 O   0  0  0  0  0  0  0  0  0  0  0  0
   10.8674   -3.6028   19.1707 C   0  0  0  0  0  0  0  0  0  0  0  0
    8.6401   -7.2240   15.7905 C   0  0  0  0  0  0  0  0  0  0  0  0
    6.8646   -7.9104   17.3497 C   0  0  0  0  0  0  0  0  0  0  0  0
    1.5541  -10.3684   17.4582 F   0  0  0  0  0  0  0  0  0  0  0  0
    8.7751   -0.4722   26.4578 C   0  0  0  0  0  0  0  0  0  0  0  0
    9.6835   -6.1586   18.2217 C   0  0  0  0  0  0  0  0  0  0  0  0
   11.4137   -2.5482   19.7208 O   0  0  0  0  0  0  0  0  0  0  0  0
    4.9575   -9.1548   15.4249 C   0  0  0  0  0  0  0  0  0  0  0  0
    5.7230   -8.3274   14.9318 C   0  0  0  0  0  0  0  0  0  0  0  0
    8.6920   -5.7985   16.0619 C   0  0  0  0  0  0  0  0  0  0  0  0
    1.6916  -12.5817   20.9769 C   0  0  0  0  0  0  0  0  0  0  0  0
    8.7941    1.0332   24.4327 C   0  0  0  0  0  0  0  0  0  0  0  0
    5.8453   -8.8031   17.8999 C   0  0  0  0  0  0  0  0  0  0  0  0
    0.3289  -11.6757   19.2225 N   0  0  0  0  0  0  0  0  0  0  0  0
    9.5154   -5.3833   17.1174 C   0  0  0  0  0  0  0  0  0  0  0  0
    3.8170   -9.9844   17.5491 C   0  0  0  0  0  0  0  0  0  0  0  0
    0.4779  -12.2976   20.3299 C   0  0  0  0  0  0  0  0  0  0  0  0
    2.5910   -9.9464   16.8522 C   0  0  0  0  0  0  0  0  0  0  0  0
    9.2206   -7.2484   18.2835 O   0  0  0  0  0  0  0  0  0  0  0  0
    1.5975  -11.0970   18.5737 C   0  0  0  0  0  0  0  0  0  0  0  0
    7.6674   -8.0864   16.2750 N   0  0  0  0  0  0  0  0  0  0  0  0
  1  2  1  0
  1  5  2  0
  1 18  1  0
  1 23  3  0
  1 25  1  0
  1 34  1  0
  2  4  3  0
  3  9  4  0
  3 19  4  0
  4  7  4  0
  4 10  4  0
  4 33  4  0
  5 11  4  0
  5 14  4  0
  6 16  1  0
  6 22  1  0
  7  9  3  0
  7 24  4  0
  8 26  2  0
  8 27  1  0
  9 14  4  0
 10 29  4  0
 11 13  1  0
 11 28  4  0
 12 21  1  0
 12 26  1  0
 12 29  1  0
 14 20  1  0
 15 23  1  0
 15 34  1  0
 16 26  1  0
 16 34  1  0
 17 31  4  0
 17 33  4  0
 19 28  4  0
 19 32  1  0
 21 22  1  0
 23 28  1  0
 25 27  1  0
 27 30  4  0
 27 33  4  0
 29 31  4  0
 31 34  2  0
M  END
$$$$

 Created by Python create_sdf_string function

 34 36  0  0  0  0  0  0  0  0999 V2000
    9.3410   -0.1494   25.1260 N   0  0  0  0  0  0  0  0  0  0  0  0
    9.8824   -1.1799   24.1962 C   0  0  0  0  0  0  0  0  0  0  0  0
   10.1886   -5.8440   19.4453 C   0  0  0  0  0  0  0  0  0  0  0  0
    2.8035  -11.2642   19.2266 C   0  0  0  0  0  0  0  0  0  0  0  0
   10.5810   -3.3442   17.8681 C   0  0  0  0  0  0  0  0  0  0  0  0
    7.1452   -8.7758   15.0754 C   0  0  0  0  0  0  0  0  0  0  0  0
    2.8334  -12.0407   20.3698 C   0  0  0  0  0  0  0  0  0  0  0  0
    5.8267   -8.9285   19.0093 O   0  0  0  0  0  0  0  0  0  0  0  0
   10.7091   -4.6607   19.8606 C   0  0  0  0  0  0  0  0  0  0  0  0
    3.9211  -10.6371   18.6595 C   0  0  0  0  0  0  0  0  0  0  0  0
    9.9836   -4.1141   17.0153 C   0  0  0  0  0  0  0  0  0  0  0  0
    4.9175   -9.3121   16.9297 N   0  0  0  0  0  0  0  0  0  0  0  0
    9.7722   -3.6210   15.8365 O   0  0  0  0  0  0  0  0  0  0  0  0
   10.8852   -3.5457   19.1533 C   0  0  0  0  0  0  0  0  0  0  0  0
    8.7111   -7.2195   15.7919 C   0  0  0  0  0  0  0  0  0  0  0  0
    6.8760   -7.9107   17.3271 C   0  0  0  0  0  0  0  0  0  0  0  0
    1.5145  -10.4410   17.4691 C   0  0  0  0  0  0  0  0  0  0  0  0
    8.7906   -0.4992   26.4247 C   0  0  0  0  0  0  0  0  0  0  0  0
    9.6605   -6.1194   18.2871 C   0  0  0  0  0  0  0  0  0  0  0  0
   11.4228   -2.5226   19.7743 O   0  0  0  0  0  0  0  0  0  0  0  0
    4.8953   -9.2215   15.4532 C   0  0  0  0  0  0  0  0  0  0  0  0
    5.7405   -8.3271   14.9146 C   0  0  0  0  0  0  0  0  0  0  0  0
    8.7326   -5.8695   16.0771 C   0  0  0  0  0  0  0  0  0  0  0  0
    1.6896  -12.5418   20.9336 C   0  0  0  0  0  0  0  0  0  0  0  0
    8.7834    1.0575   24.4358 C   0  0  0  0  0  0  0  0  0  0  0  0
    5.8681   -8.7825   17.8354 C   0  0  0  0  0  0  0  0  0  0  0  0
    0.4300  -11.6328   19.1915 N   0  0  0  0  0  0  0  0  0  0  0  0
    9.5133   -5.3692   17.1757 C   0  0  0  0  0  0  0  0  0  0  0  0
    3.8239   -9.9541   17.5076 C   0  0  0  0  0  0  0  0  0  0  0  0
    0.4932  -12.3179   20.3179 C   0  0  0  0  0  0  0  0  0  0  0  0
    2.6236   -9.9000   16.9090 C   0  0  0  0  0  0  0  0  0  0  0  0
    9.2333   -7.3139   18.2853 O   0  0  0  0  0  0  0  0  0  0  0  0
    1.5727  -11.1110   18.6268 C   0  0  0  0  0  0  0  0  0  0  0  0
    7.6954   -8.0430   16.2322 N   0  0  0  0  0  0  0  0  0  0  0  0
  1  2  1  0
  1 18  1  0
  1 25  1  0
  3  9  4  0
  3 19  4  0
  4  7  4  0
  4 10  4  0
  4 33  4  0
  5 11  4  0
  5 14  4  0
  6 22  1  0
  6 34  1  0
  7 24  4  0
  8 26  2  0
  9 14  4  0
 10 29  4  0
 11 13  1  0
 11 28  4  0
 12 21  1  0
 12 26  1  0
 12 29  1  0
 14 20  1  0
 15 23  1  0
 15 34  1  0
 16 26  1  0
 16 34  1  0
 17 31  4  0
 17 33  4  0
 19 28  4  0
 19 32  1  0
 21 22  1  0
 23 28  1  0
 24 30  4  0
 27 30  4  0
 27 33  4  0
 29 31  4  0
M  END
$$$$

 Created by Python create_sdf_string function

 34 49  0  0  0  0  0  0  0  0999 V2000
    9.3804   -0.1143   25.1013 N   0  0  0  0  0  0  0  0  0  0  0  0
    9.8764   -1.0271   24.2588 C   0  0  0  0  0  0  0  0  0  0  0  0
   10.2621   -5.8977   19.3921 C   0  0  0  0  0  0  0  0  0  0  0  0
    2.8266  -11.3739   19.1306 C   0  0  0  0  0  0  0  0  0  0  0  0
   10.6225   -3.3637   17.8323 C   0  0  0  0  0  0  0  0  0  0  0  0
    7.1860   -8.7318   15.0642 C   0  0  0  0  0  0  0  0  0  0  0  0
    2.7905  -12.0657   20.3787 C   0  0  0  0  0  0  0  0  0  0  0  0
    5.8109   -8.9159   18.9682 O   0  0  0  0  0  0  0  0  0  0  0  0
   10.7504   -4.5838   19.7675 C   0  0  0  0  0  0  0  0  0  0  0  0
    3.8200  -10.6948   18.6588 C   0  0  0  0  0  0  0  0  0  0  0  0
    9.9945   -4.1489   17.0842 C   0  0  0  0  0  0  0  0  0  0  0  0
    4.8397   -9.1116   16.8787 N   0  0  0  0  0  0  0  0  0  0  0  0
   10.9357   -3.5250   19.1490 C   0  0  0  0  0  0  0  0  0  0  0  0
    8.6244   -7.1312   15.7213 C   0  0  0  0  0  0  0  0  0  0  0  0
    6.8927   -7.9008   17.4152 C   0  0  0  0  0  0  0  0  0  0  0  0
    1.4361  -10.3943   17.4845 C   0  0  0  0  0  0  0  0  0  0  0  0
    8.7456   -0.4346   26.5327 C   0  0  0  0  0  0  0  0  0  0  0  0
    9.6397   -6.0304   18.2419 C   0  0  0  0  0  0  0  0  0  0  0  0
   11.4182   -2.5179   19.7871 O   0  0  0  0  0  0  0  0  0  0  0  0
    4.8296   -9.2667   15.3780 C   0  0  0  0  0  0  0  0  0  0  0  0
    5.7046   -8.3605   14.9607 F   0  0  0  0  0  0  0  0  0  0  0  0
    8.6602   -5.9185   15.9937 C   0  0  0  0  0  0  0  0  0  0  0  0
    1.7500  -12.5343   20.9856 C   0  0  0  0  0  0  0  0  0  0  0  0
    8.8242    1.1374   24.3593 C   0  0  0  0  0  0  0  0  0  0  0  0
    5.9277   -8.7702   17.8089 C   0  0  0  0  0  0  0  0  0  0  0  0
    0.4209  -11.6380   19.0578 N   0  0  0  0  0  0  0  0  0  0  0  0
    9.5450   -5.3775   17.1975 C   0  0  0  0  0  0  0  0  0  0  0  0
    3.9249   -9.9840   17.5766 C   0  0  0  0  0  0  0  0  0  0  0  0
    0.5233  -12.2907   20.3236 C   0  0  0  0  0  0  0  0  0  0  0  0
    2.6325   -9.8858   16.8733 C   0  0  0  0  0  0  0  0  0  0  0  0
    9.3261   -7.3431   18.2046 O   0  0  0  0  0  0  0  0  0  0  0  0
    1.5557  -11.1339   18.5380 C   0  0  0  0  0  0  0  0  0  0  0  0
    7.6449   -8.1734   16.1967 N   0  0  0  0  0  0  0  0  0  0  0  0
    9.7803   -3.5151   15.7612 He  0  0  0  0  0  0  0  0  0  0  0  0
  1  2  1  0
  1 14  2  0
  1 17  1  0
  1 21  3  0
  1 24  1  0
  1 29  1  0
  2 21  3  0
  3  9  4  0
  3 18  4  0
  3 32  3  0
  4  7  4  0
  4 10  4  0
  4 32  4  0
  5 11  4  0
  5 13  4  0
  6 21  1  0
  6 22  1  0
  6 30  2  0
  6 33  1  0
  7 17  2  0
  7 23  1  0
  7 28  1  0
  8 25  2  0
  9 13  4  0
 10 28  4  0
 11 26  4  0
 11 27  4  0
 12 20  1  0
 12 25  1  0
 12 28  1  0
 13 19  1  0
 13 29  2  0
 14 17  1  0
 14 22  1  0
 14 32  3  0
 14 33  1  0
 15 33  1  0
 16 30  4  0
 16 32  4  0
 18 27  4  0
 18 31  1  0
 20 21  1  0
 20 30  1  0
 22 27  1  0
 23 29  4  0
 26 29  4  0
 26 32  4  0
 28 30  4  0
 30 33  1  0
M  END
$$$$

 Created by Python create_sdf_string function

 34 36  0  0  0  0  0  0  0  0999 V2000
    9.3718   -0.0604   25.1265 N   0  0  0  0  0  0  0  0  0  0  0  0
    9.8889   -1.1112   24.2351 C   0  0  0  0  0  0  0  0  0  0  0  0
   10.2113   -5.8488   19.3836 C   0  0  0  0  0  0  0  0  0  0  0  0
    2.7999  -11.3156   19.2200 C   0  0  0  0  0  0  0  0  0  0  0  0
   10.6050   -3.3274   17.8519 C   0  0  0  0  0  0  0  0  0  0  0  0
    7.1195   -8.7568   15.0526 C   0  0  0  0  0  0  0  0  0  0  0  0
    2.8599  -12.0885   20.3716 C   0  0  0  0  0  0  0  0  0  0  0  0
    5.8117   -8.9311   19.0199 O   0  0  0  0  0  0  0  0  0  0  0  0
   10.7627   -4.6644   19.7978 C   0  0  0  0  0  0  0  0  0  0  0  0
    3.8907  -10.6889   18.6291 C   0  0  0  0  0  0  0  0  0  0  0  0
    9.9809   -4.0976   16.9829 C   0  0  0  0  0  0  0  0  0  0  0  0
    4.8980   -9.2604   16.9382 N   0  0  0  0  0  0  0  0  0  0  0  0
    9.7594   -3.5475   15.7373 O   0  0  0  0  0  0  0  0  0  0  0  0
   10.9279   -3.5233   19.1417 C   0  0  0  0  0  0  0  0  0  0  0  0
    8.7192   -7.2071   15.7235 C   0  0  0  0  0  0  0  0  0  0  0  0
    6.9229   -7.8923   17.3367 C   0  0  0  0  0  0  0  0  0  0  0  0
    1.4902  -10.4411   17.4478 C   0  0  0  0  0  0  0  0  0  0  0  0
    8.7758   -0.4235   26.4306 C   0  0  0  0  0  0  0  0  0  0  0  0
    9.6916   -6.1135   18.2511 C   0  0  0  0  0  0  0  0  0  0  0  0
   11.4302   -2.5361   19.8020 O   0  0  0  0  0  0  0  0  0  0  0  0
    4.8687   -9.2258   15.4467 C   0  0  0  0  0  0  0  0  0  0  0  0
    5.7383   -8.3607   14.9146 C   0  0  0  0  0  0  0  0  0  0  0  0
    8.7008   -5.8650   16.0575 C   0  0  0  0  0  0  0  0  0  0  0  0
    1.7004  -12.5417   20.9433 C   0  0  0  0  0  0  0  0  0  0  0  0
    8.8161    1.1282   24.4029 C   0  0  0  0  0  0  0  0  0  0  0  0
    5.8668   -8.7343   17.8201 C   0  0  0  0  0  0  0  0  0  0  0  0
    0.4280  -11.6778   19.1657 N   0  0  0  0  0  0  0  0  0  0  0  0
    9.5050   -5.3487   17.1490 C   0  0  0  0  0  0  0  0  0  0  0  0
    3.8146   -9.9309   17.5017 C   0  0  0  0  0  0  0  0  0  0  0  0
    0.5071  -12.3204   20.3119 C   0  0  0  0  0  0  0  0  0  0  0  0
    2.6030   -9.8568   16.9168 C   0  0  0  0  0  0  0  0  0  0  0  0
    9.3173   -7.3469   18.2590 O   0  0  0  0  0  0  0  0  0  0  0  0
    1.5532  -11.1535   18.6162 C   0  0  0  0  0  0  0  0  0  0  0  0
    7.6902   -8.0805   16.1769 N   0  0  0  0  0  0  0  0  0  0  0  0
  1  2  1  0
  1 18  1  0
  1 25  1  0
  3  9  4  0
  3 19  4  0
  4  7  4  0
  4 10  4  0
  4 33  4  0
  5 11  4  0
  5 14  4  0
  6 22  1  0
  6 34  1  0
  7 24  4  0
  8 26  2  0
  9 14  4  0
 10 29  4  0
 11 13  1  0
 11 28  4  0
 12 21  1  0
 12 26  1  0
 12 29  1  0
 14 20  1  0
 15 23  1  0
 15 34  1  0
 16 26  1  0
 16 34  1  0
 17 31  4  0
 17 33  4  0
 19 28  4  0
 19 32  1  0
 21 22  1  0
 23 28  1  0
 24 30  4  0
 27 30  4  0
 27 33  4  0
 29 31  4  0
M  END
$$$$

 Created by Python create_sdf_string function

 34 42  0  0  0  0  0  0  0  0999 V2000
    9.3793   -0.0883   25.1095 N   0  0  0  0  0  0  0  0  0  0  0  0
    9.9497   -1.0707   24.2832 C   0  0  0  0  0  0  0  0  0  0  0  0
   10.2079   -5.8207   19.3966 C   0  0  0  0  0  0  0  0  0  0  0  0
    2.8550  -11.3147   19.1465 C   0  0  0  0  0  0  0  0  0  0  0  0
   10.5630   -3.3898   17.9203 C   0  0  0  0  0  0  0  0  0  0  0  0
    7.1844   -8.8580   15.0177 C   0  0  0  0  0  0  0  0  0  0  0  0
    2.8035  -12.0993   20.3776 C   0  0  0  0  0  0  0  0  0  0  0  0
    5.7369   -8.9441   18.9452 O   0  0  0  0  0  0  0  0  0  0  0  0
   10.7836   -4.6690   19.8852 C   0  0  0  0  0  0  0  0  0  0  0  0
    3.8409  -10.5982   18.6547 C   0  0  0  0  0  0  0  0  0  0  0  0
   10.0148   -4.1067   17.0051 C   0  0  0  0  0  0  0  0  0  0  0  0
    4.8200   -9.2002   16.9674 N   0  0  0  0  0  0  0  0  0  0  0  0
    9.7144   -3.5764   15.7304 O   0  0  0  0  0  0  0  0  0  0  0  0
   11.0695   -3.5030   19.1295 C   0  0  0  0  0  0  0  0  0  0  0  0
    8.7779   -7.1991   15.8132 C   0  0  0  0  0  0  0  0  0  0  0  0
    6.9815   -7.8216   17.2994 C   0  0  0  0  0  0  0  0  0  0  0  0
    1.5976  -10.4298   17.3751 C   0  0  0  0  0  0  0  0  0  0  0  0
    8.7215   -0.5177   26.4669 C   0  0  0  0  0  0  0  0  0  0  0  0
   11.4345   -2.4830   19.7984 O   0  0  0  0  0  0  0  0  0  0  0  0
    4.9326   -9.2217   15.5571 C   0  0  0  0  0  0  0  0  0  0  0  0
    8.8443   -5.8654   16.1041 C   0  0  0  0  0  0  0  0  0  0  0  0
    1.7477  -12.5627   20.8931 C   0  0  0  0  0  0  0  0  0  0  0  0
    8.8265    1.0299   24.4857 C   0  0  0  0  0  0  0  0  0  0  0  0
    5.8953   -8.7124   17.7995 C   0  0  0  0  0  0  0  0  0  0  0  0
    0.4397  -11.6011   19.1854 N   0  0  0  0  0  0  0  0  0  0  0  0
    9.5176   -5.3892   17.1398 C   0  0  0  0  0  0  0  0  0  0  0  0
    3.8707   -9.8449   17.5385 C   0  0  0  0  0  0  0  0  0  0  0  0
    0.5102  -12.3857   20.2741 C   0  0  0  0  0  0  0  0  0  0  0  0
    2.5951   -9.9028   16.8701 C   0  0  0  0  0  0  0  0  0  0  0  0
    9.3384   -7.2516   18.2816 O   0  0  0  0  0  0  0  0  0  0  0  0
    1.5049  -11.1129   18.5860 C   0  0  0  0  0  0  0  0  0  0  0  0
    7.7227   -8.1342   16.1838 N   0  0  0  0  0  0  0  0  0  0  0  0
    9.6768   -6.1093   18.2643 He  0  0  0  0  0  0  0  0  0  0  0  0
    5.6100   -8.2778   14.9253 He  0  0  0  0  0  0  0  0  0  0  0  0
  1  2  1  0
  1 18  1  0
  1 23  1  0
  3  9  4  0
  3 28  1  0
  4  7  4  0
  4  8  1  0
  4 10  4  0
  4 22  1  0
  4 31  4  0
  5 11  4  0
  5 12  1  0
  5 14  4  0
  6 32  1  0
  7 22  4  0
  8 10  2  0
  8 24  2  0
  8 27  2  0
  9 14  4  0
 10 27  4  0
 10 31  4  0
 11 13  1  0
 11 26  4  0
 11 29  1  0
 12 24  1  0
 12 27  1  0
 14 19  1  0
 15 21  2  0
 15 32  1  0
 16 24  1  0
 16 32  1  0
 17 29  4  0
 17 31  4  0
 18 20  4  0
 19 28  1  0
 21 26  1  0
 22 23  4  0
 22 28  4  0
 25 28  4  0
 25 29  4  0
 25 31  4  0
 27 29  4  0
M  END
$$$$

 Created by Python create_sdf_string function

 34 36  0  0  0  0  0  0  0  0999 V2000
    9.3806   -0.0776   25.1466 N   0  0  0  0  0  0  0  0  0  0  0  0
    9.9521   -1.1199   24.2673 C   0  0  0  0  0  0  0  0  0  0  0  0
   10.2188   -5.8431   19.4199 C   0  0  0  0  0  0  0  0  0  0  0  0
    2.8106  -11.2663   19.2098 C   0  0  0  0  0  0  0  0  0  0  0  0
   10.6140   -3.3332   17.8893 C   0  0  0  0  0  0  0  0  0  0  0  0
    7.1284   -8.7747   15.0586 C   0  0  0  0  0  0  0  0  0  0  0  0
    2.8694  -12.0764   20.3436 C   0  0  0  0  0  0  0  0  0  0  0  0
    5.7908   -8.9111   18.9974 O   0  0  0  0  0  0  0  0  0  0  0  0
   10.7923   -4.6762   19.8472 C   0  0  0  0  0  0  0  0  0  0  0  0
    3.8945  -10.6058   18.6596 C   0  0  0  0  0  0  0  0  0  0  0  0
   10.0014   -4.0910   17.0310 C   0  0  0  0  0  0  0  0  0  0  0  0
    4.8963   -9.2276   16.9328 N   0  0  0  0  0  0  0  0  0  0  0  0
    9.7367   -3.6077   15.8191 O   0  0  0  0  0  0  0  0  0  0  0  0
   10.9686   -3.5200   19.1721 C   0  0  0  0  0  0  0  0  0  0  0  0
    8.7248   -7.2014   15.8003 C   0  0  0  0  0  0  0  0  0  0  0  0
    6.9515   -7.8662   17.3278 C   0  0  0  0  0  0  0  0  0  0  0  0
    1.5296  -10.4507   17.4346 C   0  0  0  0  0  0  0  0  0  0  0  0
    8.7457   -0.5185   26.4169 C   0  0  0  0  0  0  0  0  0  0  0  0
    9.7090   -6.1099   18.2893 C   0  0  0  0  0  0  0  0  0  0  0  0
   11.4719   -2.5195   19.8072 O   0  0  0  0  0  0  0  0  0  0  0  0
    4.8842   -9.2225   15.4968 C   0  0  0  0  0  0  0  0  0  0  0  0
    5.7217   -8.3303   14.9232 C   0  0  0  0  0  0  0  0  0  0  0  0
    8.8906   -5.9435   16.0777 C   0  0  0  0  0  0  0  0  0  0  0  0
    1.7213  -12.5867   20.8798 C   0  0  0  0  0  0  0  0  0  0  0  0
    8.7990    1.0917   24.4676 C   0  0  0  0  0  0  0  0  0  0  0  0
    5.8887   -8.7021   17.8033 C   0  0  0  0  0  0  0  0  0  0  0  0
    0.4528  -11.6617   19.1649 N   0  0  0  0  0  0  0  0  0  0  0  0
    9.5568   -5.3653   17.1592 C   0  0  0  0  0  0  0  0  0  0  0  0
    3.8244   -9.8870   17.5151 C   0  0  0  0  0  0  0  0  0  0  0  0
    0.5250  -12.3598   20.2790 C   0  0  0  0  0  0  0  0  0  0  0  0
    2.6324   -9.8562   16.8927 C   0  0  0  0  0  0  0  0  0  0  0  0
    9.3132   -7.3002   18.2908 O   0  0  0  0  0  0  0  0  0  0  0  0
    1.5728  -11.1330   18.6016 C   0  0  0  0  0  0  0  0  0  0  0  0
    7.7328   -8.0465   16.1564 N   0  0  0  0  0  0  0  0  0  0  0  0
  1  2  1  0
  1 18  1  0
  1 25  1  0
  3  9  4  0
  3 19  4  0
  4  7  4  0
  4 10  4  0
  4 33  4  0
  5 11  4  0
  5 14  4  0
  6 22  1  0
  6 34  1  0
  7 24  4  0
  8 26  2  0
  9 14  4  0
 10 29  4  0
 11 13  1  0
 11 28  4  0
 12 21  1  0
 12 26  1  0
 12 29  1  0
 14 20  1  0
 15 23  2  0
 15 34  1  0
 16 26  1  0
 16 34  1  0
 17 31  4  0
 17 33  4  0
 19 28  4  0
 19 32  1  0
 21 22  1  0
 23 28  1  0
 24 30  4  0
 27 30  4  0
 27 33  4  0
 29 31  4  0
M  END
$$$$

 Created by Python create_sdf_string function

 34 50  0  0  0  0  0  0  0  0999 V2000
    9.4494    0.0159   25.0820 N   0  0  0  0  0  0  0  0  0  0  0  0
    9.8746   -1.0139   24.2448 C   0  0  0  0  0  0  0  0  0  0  0  0
   10.2640   -5.7378   19.4107 C   0  0  0  0  0  0  0  0  0  0  0  0
    2.8217  -11.3038   19.2861 C   0  0  0  0  0  0  0  0  0  0  0  0
   10.6338   -3.1986   17.7933 C   0  0  0  0  0  0  0  0  0  0  0  0
    7.1199   -8.6538   15.1204 C   0  0  0  0  0  0  0  0  0  0  0  0
    2.8585  -12.0779   20.3582 C   0  0  0  0  0  0  0  0  0  0  0  0
    5.8286   -8.9183   18.9908 O   0  0  0  0  0  0  0  0  0  0  0  0
   10.8135   -4.6907   19.7912 C   0  0  0  0  0  0  0  0  0  0  0  0
    3.8921  -10.6873   18.6751 C   0  0  0  0  0  0  0  0  0  0  0  0
   10.0465   -4.0050   17.0033 C   0  0  0  0  0  0  0  0  0  0  0  0
    4.8465   -9.1577   17.0257 N   0  0  0  0  0  0  0  0  0  0  0  0
    9.7845   -3.5689   15.7270 O   0  0  0  0  0  0  0  0  0  0  0  0
   10.9501   -3.5270   19.1422 C   0  0  0  0  0  0  0  0  0  0  0  0
    8.7807   -7.2278   15.8281 C   0  0  0  0  0  0  0  0  0  0  0  0
    6.9319   -7.8077   17.3306 C   0  0  0  0  0  0  0  0  0  0  0  0
    1.5076  -10.4098   17.4714 C   0  0  0  0  0  0  0  0  0  0  0  0
    8.7619   -0.5803   26.4870 C   0  0  0  0  0  0  0  0  0  0  0  0
    9.6804   -6.0793   18.3095 C   0  0  0  0  0  0  0  0  0  0  0  0
   11.4543   -2.4419   19.7429 O   0  0  0  0  0  0  0  0  0  0  0  0
    4.9303   -9.2234   15.4983 C   0  0  0  0  0  0  0  0  0  0  0  0
    5.7394   -8.4497   14.8618 C   0  0  0  0  0  0  0  0  0  0  0  0
    8.8798   -5.8583   16.0071 C   0  0  0  0  0  0  0  0  0  0  0  0
    1.7341  -12.6137   20.7975 C   0  0  0  0  0  0  0  0  0  0  0  0
    8.7837    1.1026   24.4171 C   0  0  0  0  0  0  0  0  0  0  0  0
    5.8271   -8.5930   17.7838 P   0  0  0  0  0  0  0  0  0  0  0  0
    0.3946  -11.7039   19.1623 N   0  0  0  0  0  0  0  0  0  0  0  0
    9.5212   -5.2666   17.1381 C   0  0  0  0  0  0  0  0  0  0  0  0
    3.7630   -9.9570   17.4707 C   0  0  0  0  0  0  0  0  0  0  0  0
    0.4660  -12.3799   20.2655 C   0  0  0  0  0  0  0  0  0  0  0  0
    2.6442   -9.8293   16.9008 C   0  0  0  0  0  0  0  0  0  0  0  0
    9.3590   -7.3752   18.3567 O   0  0  0  0  0  0  0  0  0  0  0  0
    1.5747  -11.1915   18.6580 C   0  0  0  0  0  0  0  0  0  0  0  0
    7.7892   -8.0561   16.1666 N   0  0  0  0  0  0  0  0  0  0  0  0
  1  2  1  0
  1  8  3  0
  1 18  1  0
  1 25  1  0
  2 20  3  0
  2 34  2  0
  3  9  4  0
  3 13  2  0
  3 19  4  0
  3 29  3  0
  4  7  4  0
  4  9  3  0
  4 10  4  0
  4 14  2  0
  4 33  4  0
  5 11  4  0
  5 14  4  0
  5 17  4  0
  6 22  1  0
  6 34  4  0
  7 11  2  0
  7 24  4  0
  8 26  2  0
  9 14  4  0
  9 19  2  0
 10 29  4  0
 10 33  4  0
 11 13  1  0
 11 28  4  0
 12 21  1  0
 12 26  1  0
 12 29  1  0
 13 16  4  0
 14 20  1  0
 15 23  2  0
 15 34  1  0
 16 26  1  0
 16 34  1  0
 17 31  1  0
 17 33  4  0
 19 28  4  0
 19 32  1  0
 21 22  1  0
 22 32  1  0
 23 28  1  0
 24 30  4  0
 27 30  4  0
 27 33  4  0
 28 29  1  0
 29 31  4  0
M  END
$$$$

 Created by Python create_sdf_string function

 34 36  0  0  0  0  0  0  0  0999 V2000
    9.4367    0.0138   25.1492 N   0  0  0  0  0  0  0  0  0  0  0  0
    9.8949   -1.0692   24.2142 C   0  0  0  0  0  0  0  0  0  0  0  0
   10.2357   -5.7987   19.3877 C   0  0  0  0  0  0  0  0  0  0  0  0
    2.8054  -11.3069   19.2284 C   0  0  0  0  0  0  0  0  0  0  0  0
   10.6262   -3.2429   17.8349 C   0  0  0  0  0  0  0  0  0  0  0  0
    7.1384   -8.6743   15.0829 C   0  0  0  0  0  0  0  0  0  0  0  0
    2.8567  -12.1074   20.3739 C   0  0  0  0  0  0  0  0  0  0  0  0
    5.8253   -8.8785   19.0001 O   0  0  0  0  0  0  0  0  0  0  0  0
   10.7963   -4.6363   19.7777 C   0  0  0  0  0  0  0  0  0  0  0  0
    3.8996  -10.6500   18.6536 C   0  0  0  0  0  0  0  0  0  0  0  0
   10.0161   -4.0371   16.9848 C   0  0  0  0  0  0  0  0  0  0  0  0
    4.8851   -9.2134   16.9564 N   0  0  0  0  0  0  0  0  0  0  0  0
    9.7810   -3.5718   15.7721 O   0  0  0  0  0  0  0  0  0  0  0  0
   10.9583   -3.4843   19.1339 C   0  0  0  0  0  0  0  0  0  0  0  0
    8.7585   -7.1949   15.8439 C   0  0  0  0  0  0  0  0  0  0  0  0
    6.9223   -7.8546   17.3126 C   0  0  0  0  0  0  0  0  0  0  0  0
    1.5023  -10.4308   17.4815 C   0  0  0  0  0  0  0  0  0  0  0  0
    8.7831   -0.5350   26.3985 C   0  0  0  0  0  0  0  0  0  0  0  0
    9.7145   -6.0849   18.2858 C   0  0  0  0  0  0  0  0  0  0  0  0
   11.4668   -2.4694   19.7735 O   0  0  0  0  0  0  0  0  0  0  0  0
    4.8734   -9.2469   15.5031 C   0  0  0  0  0  0  0  0  0  0  0  0
    5.7661   -8.4426   14.8940 C   0  0  0  0  0  0  0  0  0  0  0  0
    8.9405   -5.9274   16.0456 C   0  0  0  0  0  0  0  0  0  0  0  0
    1.7062  -12.6370   20.8734 C   0  0  0  0  0  0  0  0  0  0  0  0
    8.7605    1.1250   24.4463 C   0  0  0  0  0  0  0  0  0  0  0  0
    5.8773   -8.6694   17.7883 C   0  0  0  0  0  0  0  0  0  0  0  0
    0.4552  -11.6991   19.1690 N   0  0  0  0  0  0  0  0  0  0  0  0
    9.5770   -5.3201   17.1410 C   0  0  0  0  0  0  0  0  0  0  0  0
    3.8081   -9.9043   17.5283 C   0  0  0  0  0  0  0  0  0  0  0  0
    0.5164  -12.4176   20.2826 C   0  0  0  0  0  0  0  0  0  0  0  0
    2.6055   -9.8459   16.9249 C   0  0  0  0  0  0  0  0  0  0  0  0
    9.3185   -7.3433   18.3330 O   0  0  0  0  0  0  0  0  0  0  0  0
    1.5691  -11.1525   18.6298 C   0  0  0  0  0  0  0  0  0  0  0  0
    7.7140   -7.9460   16.1618 N   0  0  0  0  0  0  0  0  0  0  0  0
  1  2  1  0
  1 18  1  0
  1 25  1  0
  3  9  4  0
  3 19  4  0
  4  7  4  0
  4 10  4  0
  4 33  4  0
  5 11  4  0
  5 14  4  0
  6 22  1  0
  6 34  1  0
  7 24  4  0
  8 26  2  0
  9 14  4  0
 10 29  4  0
 11 13  1  0
 11 28  4  0
 12 21  1  0
 12 26  1  0
 12 29  1  0
 14 20  1  0
 15 23  2  0
 15 34  1  0
 16 26  1  0
 16 34  1  0
 17 31  4  0
 17 33  4  0
 19 28  4  0
 19 32  1  0
 21 22  1  0
 23 28  1  0
 24 30  4  0
 27 30  4  0
 27 33  4  0
 29 31  4  0
M  END
$$$$

 Created by Python create_sdf_string function

 34 43  0  0  0  0  0  0  0  0999 V2000
    9.3962    0.0676   25.1532 N   0  0  0  0  0  0  0  0  0  0  0  0
    9.8928   -1.0540   24.1400 C   0  0  0  0  0  0  0  0  0  0  0  0
    2.8404  -11.2849   19.1924 C   0  0  0  0  0  0  0  0  0  0  0  0
   10.5904   -3.2577   17.8218 C   0  0  0  0  0  0  0  0  0  0  0  0
    7.1606   -8.6840   15.1428 C   0  0  0  0  0  0  0  0  0  0  0  0
    2.9190  -12.1781   20.3340 C   0  0  0  0  0  0  0  0  0  0  0  0
    5.8845   -8.8049   18.9548 O   0  0  0  0  0  0  0  0  0  0  0  0
   10.7252   -4.5780   19.7615 C   0  0  0  0  0  0  0  0  0  0  0  0
    3.8539  -10.6707   18.6765 C   0  0  0  0  0  0  0  0  0  0  0  0
   10.1095   -4.0632   17.0046 C   0  0  0  0  0  0  0  0  0  0  0  0
    4.9057   -9.2460   16.9496 N   0  0  0  0  0  0  0  0  0  0  0  0
    9.7097   -3.5851   15.7720 O   0  0  0  0  0  0  0  0  0  0  0  0
   10.9240   -3.4886   19.1475 C   0  0  0  0  0  0  0  0  0  0  0  0
    8.7577   -7.1702   15.8061 C   0  0  0  0  0  0  0  0  0  0  0  0
    6.9919   -7.8189   17.3082 C   0  0  0  0  0  0  0  0  0  0  0  0
    1.5044  -10.3810   17.5223 C   0  0  0  0  0  0  0  0  0  0  0  0
    8.7402   -0.5188   26.4083 C   0  0  0  0  0  0  0  0  0  0  0  0
    9.6736   -6.0183   18.2920 C   0  0  0  0  0  0  0  0  0  0  0  0
   11.4411   -2.4771   19.8164 O   0  0  0  0  0  0  0  0  0  0  0  0
    4.8577   -9.2488   15.3998 C   0  0  0  0  0  0  0  0  0  0  0  0
    5.7105   -8.4813   14.9105 C   0  0  0  0  0  0  0  0  0  0  0  0
    8.9275   -5.9134   16.0690 C   0  0  0  0  0  0  0  0  0  0  0  0
    1.7350  -12.6915   20.7817 C   0  0  0  0  0  0  0  0  0  0  0  0
    8.8240    1.1391   24.4541 C   0  0  0  0  0  0  0  0  0  0  0  0
    5.8036   -8.7332   17.7708 C   0  0  0  0  0  0  0  0  0  0  0  0
    0.4302  -11.7116   19.1848 N   0  0  0  0  0  0  0  0  0  0  0  0
    9.5710   -5.3119   17.0950 C   0  0  0  0  0  0  0  0  0  0  0  0
    3.8766   -9.8878   17.5388 C   0  0  0  0  0  0  0  0  0  0  0  0
    0.4214  -12.3127   20.2205 C   0  0  0  0  0  0  0  0  0  0  0  0
    2.5871   -9.8690   16.9103 C   0  0  0  0  0  0  0  0  0  0  0  0
    9.2891   -7.3801   18.3156 O   0  0  0  0  0  0  0  0  0  0  0  0
    1.5996  -11.0656   18.7124 C   0  0  0  0  0  0  0  0  0  0  0  0
    7.6486   -7.9062   16.1246 N   0  0  0  0  0  0  0  0  0  0  0  0
   10.2121   -5.7836   19.5172 He  0  0  0  0  0  0  0  0  0  0  0  0
  1  2  1  0
  1 17  1  0
  1 24  1  0
  2  4  2  0
  2 29  3  0
  2 31  2  0
  3  6  4  0
  3  9  4  0
  3 31  1  0
  3 32  4  0
  3 33  2  0
  4 10  4  0
  4 13  4  0
  5 21  1  0
  5 33  1  0
  6 23  4  0
  7 25  2  0
  8 13  4  0
  9 28  4  0
 10 12  1  0
 10 27  4  0
 10 31  3  0
 11 20  1  0
 11 25  1  0
 11 28  1  0
 12 25  1  0
 13 18  4  0
 13 19  1  0
 13 29  1  0
 14 22  2  0
 14 29  3  0
 14 33  1  0
 15 25  1  0
 15 33  1  0
 16 30  4  0
 18 27  4  0
 18 31  1  0
 20 21  1  0
 22 27  1  0
 23 29  4  0
 26 29  4  0
 26 32  4  0
 28 30  4  0
M  END
$$$$

 Created by Python create_sdf_string function

 34 36  0  0  0  0  0  0  0  0999 V2000
    9.4257    0.0296   25.1560 N   0  0  0  0  0  0  0  0  0  0  0  0
    9.8753   -1.0482   24.1606 C   0  0  0  0  0  0  0  0  0  0  0  0
   10.1848   -5.7825   19.4341 C   0  0  0  0  0  0  0  0  0  0  0  0
    2.8262  -11.3079   19.2177 C   0  0  0  0  0  0  0  0  0  0  0  0
   10.6187   -3.2773   17.8436 C   0  0  0  0  0  0  0  0  0  0  0  0
    7.1263   -8.7091   15.1139 C   0  0  0  0  0  0  0  0  0  0  0  0
    2.8811  -12.1552   20.3196 C   0  0  0  0  0  0  0  0  0  0  0  0
    5.8410   -8.8370   18.9603 O   0  0  0  0  0  0  0  0  0  0  0  0
   10.7130   -4.6227   19.8036 C   0  0  0  0  0  0  0  0  0  0  0  0
    3.9179  -10.6438   18.6534 C   0  0  0  0  0  0  0  0  0  0  0  0
   10.0307   -4.0696   16.9895 C   0  0  0  0  0  0  0  0  0  0  0  0
    4.9100   -9.2492   16.9353 N   0  0  0  0  0  0  0  0  0  0  0  0
    9.7614   -3.5993   15.7867 O   0  0  0  0  0  0  0  0  0  0  0  0
   10.9078   -3.5064   19.1445 C   0  0  0  0  0  0  0  0  0  0  0  0
    8.6936   -7.1387   15.8255 C   0  0  0  0  0  0  0  0  0  0  0  0
    6.9398   -7.8445   17.2822 C   0  0  0  0  0  0  0  0  0  0  0  0
    1.5145  -10.3820   17.5191 C   0  0  0  0  0  0  0  0  0  0  0  0
    8.7489   -0.5099   26.3691 C   0  0  0  0  0  0  0  0  0  0  0  0
    9.6989   -6.0948   18.3122 C   0  0  0  0  0  0  0  0  0  0  0  0
   11.4294   -2.4910   19.8121 O   0  0  0  0  0  0  0  0  0  0  0  0
    4.8609   -9.2849   15.4406 C   0  0  0  0  0  0  0  0  0  0  0  0
    5.7446   -8.4212   14.8752 C   0  0  0  0  0  0  0  0  0  0  0  0
    8.9997   -5.9496   16.0670 C   0  0  0  0  0  0  0  0  0  0  0  0
    1.7279  -12.6861   20.8288 C   0  0  0  0  0  0  0  0  0  0  0  0
    8.7956    1.1797   24.4628 C   0  0  0  0  0  0  0  0  0  0  0  0
    5.8858   -8.6817   17.7617 C   0  0  0  0  0  0  0  0  0  0  0  0
    0.4566  -11.6545   19.2028 N   0  0  0  0  0  0  0  0  0  0  0  0
    9.6076   -5.3446   17.1697 C   0  0  0  0  0  0  0  0  0  0  0  0
    3.8344   -9.9084   17.5269 C   0  0  0  0  0  0  0  0  0  0  0  0
    0.5265  -12.3993   20.2818 C   0  0  0  0  0  0  0  0  0  0  0  0
    2.6197   -9.8378   16.9603 C   0  0  0  0  0  0  0  0  0  0  0  0
    9.2773   -7.3268   18.3320 O   0  0  0  0  0  0  0  0  0  0  0  0
    1.5761  -11.1257   18.6487 C   0  0  0  0  0  0  0  0  0  0  0  0
    7.6420   -7.8488   16.1101 N   0  0  0  0  0  0  0  0  0  0  0  0
  1  2  1  0
  1 18  1  0
  1 25  1  0
  3  9  4  0
  3 19  4  0
  4  7  4  0
  4 10  4  0
  4 33  4  0
  5 11  4  0
  5 14  4  0
  6 22  1  0
  6 34  1  0
  7 24  4  0
  8 26  2  0
  9 14  4  0
 10 29  4  0
 11 13  1  0
 11 28  4  0
 12 21  1  0
 12 26  1  0
 12 29  1  0
 14 20  1  0
 15 23  2  0
 15 34  1  0
 16 26  1  0
 16 34  1  0
 17 31  4  0
 17 33  4  0
 19 28  4  0
 19 32  1  0
 21 22  1  0
 23 28  1  0
 24 30  4  0
 27 30  4  0
 27 33  4  0
 29 31  4  0
M  END
$$$$

 Created by Python create_sdf_string function

 34 39  0  0  0  0  0  0  0  0999 V2000
    9.4765    0.0256   25.1743 N   0  0  0  0  0  0  0  0  0  0  0  0
    9.8385   -1.0340   24.2191 C   0  0  0  0  0  0  0  0  0  0  0  0
   10.2047   -5.7647   19.4101 C   0  0  0  0  0  0  0  0  0  0  0  0
    2.8474  -11.3352   19.2142 C   0  0  0  0  0  0  0  0  0  0  0  0
   10.5749   -3.2608   17.8103 C   0  0  0  0  0  0  0  0  0  0  0  0
    7.1012   -8.7640   15.1737 C   0  0  0  0  0  0  0  0  0  0  0  0
    2.9442  -12.1444   20.3037 C   0  0  0  0  0  0  0  0  0  0  0  0
    5.7392   -8.8385   18.9406 O   0  0  0  0  0  0  0  0  0  0  0  0
   10.7259   -4.6342   19.7923 C   0  0  0  0  0  0  0  0  0  0  0  0
    3.9739  -10.6417   18.6045 C   0  0  0  0  0  0  0  0  0  0  0  0
   10.0174   -4.1039   17.0282 C   0  0  0  0  0  0  0  0  0  0  0  0
    4.9007   -9.2576   16.9475 N   0  0  0  0  0  0  0  0  0  0  0  0
    9.7591   -3.6321   15.7913 O   0  0  0  0  0  0  0  0  0  0  0  0
   10.9211   -3.5471   19.1447 C   0  0  0  0  0  0  0  0  0  0  0  0
    8.7150   -7.0878   15.9212 C   0  0  0  0  0  0  0  0  0  0  0  0
    6.8636   -7.8635   17.2940 C   0  0  0  0  0  0  0  0  0  0  0  0
    1.4644  -10.3549   17.4829 C   0  0  0  0  0  0  0  0  0  0  0  0
    8.7144   -0.4867   26.3851 C   0  0  0  0  0  0  0  0  0  0  0  0
    9.7630   -6.1211   18.2912 C   0  0  0  0  0  0  0  0  0  0  0  0
   11.3989   -2.5282   19.8616 O   0  0  0  0  0  0  0  0  0  0  0  0
    4.8135   -9.2423   15.4839 C   0  0  0  0  0  0  0  0  0  0  0  0
    5.7355   -8.4414   14.8236 C   0  0  0  0  0  0  0  0  0  0  0  0
    9.0378   -5.9938   16.0879 C   0  0  0  0  0  0  0  0  0  0  0  0
    1.8142  -12.7084   20.8912 C   0  0  0  0  0  0  0  0  0  0  0  0
    8.7633    1.1607   24.4475 C   0  0  0  0  0  0  0  0  0  0  0  0
    5.8745   -8.7503   17.7677 Cl  0  0  0  0  0  0  0  0  0  0  0  0
    0.5198  -11.6002   19.2388 N   0  0  0  0  0  0  0  0  0  0  0  0
    9.6144   -5.3572   17.1714 C   0  0  0  0  0  0  0  0  0  0  0  0
    3.8696   -9.9796   17.5551 C   0  0  0  0  0  0  0  0  0  0  0  0
    0.5483  -12.4650   20.3302 C   0  0  0  0  0  0  0  0  0  0  0  0
    2.5696   -9.8891   16.9353 C   0  0  0  0  0  0  0  0  0  0  0  0
    9.2397   -7.2977   18.3584 O   0  0  0  0  0  0  0  0  0  0  0  0
    1.4873  -11.1255   18.6927 C   0  0  0  0  0  0  0  0  0  0  0  0
    7.6607   -7.7393   16.1448 N   0  0  0  0  0  0  0  0  0  0  0  0
  1  2  1  0
  1 18  1  0
  1 25  1  0
  2 22  2  0
  3  9  4  0
  3 18  2  0
  3 19  4  0
  4  7  4  0
  4 10  4  0
  4 33  4  0
  5 11  4  0
  5 14  4  0
  6 22  1  0
  6 34  1  0
  8 26  2  0
  9 14  4  0
 10 29  4  0
 11 13  1  0
 11 28  4  0
 12 21  1  0
 12 26  1  0
 12 29  1  0
 14 20  1  0
 15 23  2  0
 16 24  2  0
 16 26  1  0
 16 34  1  0
 17 31  4  0
 17 33  4  0
 19 28  4  0
 19 32  1  0
 20 28  1  0
 21 22  1  0
 23 28  1  0
 23 32  3  0
 24 30  4  0
 27 30  4  0
 27 33  4  0
 29 31  4  0
M  END
$$$$

 Created by Python create_sdf_string function

 34 36  0  0  0  0  0  0  0  0999 V2000
    9.4709    0.0313   25.1632 N   0  0  0  0  0  0  0  0  0  0  0  0
    9.8492   -1.0624   24.1923 C   0  0  0  0  0  0  0  0  0  0  0  0
   10.2175   -5.8096   19.4076 C   0  0  0  0  0  0  0  0  0  0  0  0
    2.8483  -11.3181   19.2151 C   0  0  0  0  0  0  0  0  0  0  0  0
   10.5950   -3.2778   17.8598 C   0  0  0  0  0  0  0  0  0  0  0  0
    7.1122   -8.7537   15.1583 C   0  0  0  0  0  0  0  0  0  0  0  0
    2.9320  -12.1484   20.3181 C   0  0  0  0  0  0  0  0  0  0  0  0
    5.7574   -8.8580   18.9517 O   0  0  0  0  0  0  0  0  0  0  0  0
   10.7300   -4.6476   19.8007 C   0  0  0  0  0  0  0  0  0  0  0  0
    3.9391  -10.6681   18.6299 C   0  0  0  0  0  0  0  0  0  0  0  0
   10.0242   -4.0935   17.0020 C   0  0  0  0  0  0  0  0  0  0  0  0
    4.8961   -9.2785   16.9121 N   0  0  0  0  0  0  0  0  0  0  0  0
    9.7725   -3.6411   15.8105 O   0  0  0  0  0  0  0  0  0  0  0  0
   10.9048   -3.5094   19.1494 C   0  0  0  0  0  0  0  0  0  0  0  0
    8.6628   -7.1187   15.8873 C   0  0  0  0  0  0  0  0  0  0  0  0
    6.8518   -7.8768   17.2892 C   0  0  0  0  0  0  0  0  0  0  0  0
    1.5056  -10.3932   17.5282 C   0  0  0  0  0  0  0  0  0  0  0  0
    8.7249   -0.4799   26.3686 C   0  0  0  0  0  0  0  0  0  0  0  0
    9.7194   -6.1186   18.3068 C   0  0  0  0  0  0  0  0  0  0  0  0
   11.4042   -2.5272   19.8419 O   0  0  0  0  0  0  0  0  0  0  0  0
    4.8191   -9.2626   15.4566 C   0  0  0  0  0  0  0  0  0  0  0  0
    5.7323   -8.4388   14.8661 C   0  0  0  0  0  0  0  0  0  0  0  0
    9.0822   -5.9903   16.0725 C   0  0  0  0  0  0  0  0  0  0  0  0
    1.8202  -12.7023   20.8829 C   0  0  0  0  0  0  0  0  0  0  0  0
    8.7645    1.1643   24.4567 C   0  0  0  0  0  0  0  0  0  0  0  0
    5.8356   -8.7040   17.7502 C   0  0  0  0  0  0  0  0  0  0  0  0
    0.4950  -11.6609   19.2595 N   0  0  0  0  0  0  0  0  0  0  0  0
    9.6435   -5.3681   17.1683 C   0  0  0  0  0  0  0  0  0  0  0  0
    3.8224   -9.9337   17.5029 C   0  0  0  0  0  0  0  0  0  0  0  0
    0.5980  -12.4448   20.3358 C   0  0  0  0  0  0  0  0  0  0  0  0
    2.6034   -9.8551   16.9461 C   0  0  0  0  0  0  0  0  0  0  0  0
    9.2445   -7.2951   18.3186 O   0  0  0  0  0  0  0  0  0  0  0  0
    1.5935  -11.1336   18.6794 C   0  0  0  0  0  0  0  0  0  0  0  0
    7.5977   -7.7931   16.1248 N   0  0  0  0  0  0  0  0  0  0  0  0
  1  2  1  0
  1 18  1  0
  1 25  1  0
  3  9  4  0
  3 19  4  0
  4  7  4  0
  4 10  4  0
  4 33  4  0
  5 11  4  0
  5 14  4  0
  6 22  1  0
  6 34  1  0
  7 24  4  0
  8 26  2  0
  9 14  4  0
 10 29  4  0
 11 13  1  0
 11 28  4  0
 12 21  1  0
 12 26  1  0
 12 29  1  0
 14 20  1  0
 15 23  2  0
 15 34  1  0
 16 26  1  0
 16 34  1  0
 17 31  4  0
 17 33  4  0
 19 28  4  0
 19 32  1  0
 21 22  1  0
 23 28  1  0
 24 30  4  0
 27 30  4  0
 27 33  4  0
 29 31  4  0
M  END
$$$$

 Created by Python create_sdf_string function

 34 35  0  0  0  0  0  0  0  0999 V2000
    9.5522    0.0141   25.1890 N   0  0  0  0  0  0  0  0  0  0  0  0
    9.7724   -1.1116   24.2238 C   0  0  0  0  0  0  0  0  0  0  0  0
   10.1643   -5.8346   19.3485 C   0  0  0  0  0  0  0  0  0  0  0  0
    2.7846  -11.3398   19.1965 C   0  0  0  0  0  0  0  0  0  0  0  0
   10.6038   -3.2037   17.8588 C   0  0  0  0  0  0  0  0  0  0  0  0
    7.0980   -8.7975   15.1796 C   0  0  0  0  0  0  0  0  0  0  0  0
    2.9437  -12.1405   20.3246 C   0  0  0  0  0  0  0  0  0  0  0  0
    5.7749   -8.8898   18.9710 O   0  0  0  0  0  0  0  0  0  0  0  0
   10.6951   -4.6412   19.8373 C   0  0  0  0  0  0  0  0  0  0  0  0
    3.8845  -10.6873   18.6161 C   0  0  0  0  0  0  0  0  0  0  0  0
   10.0781   -4.1384   17.0021 C   0  0  0  0  0  0  0  0  0  0  0  0
    4.9963   -9.2406   16.8680 N   0  0  0  0  0  0  0  0  0  0  0  0
    9.8130   -3.5947   15.8552 O   0  0  0  0  0  0  0  0  0  0  0  0
   10.8812   -3.5159   19.1014 C   0  0  0  0  0  0  0  0  0  0  0  0
    8.7071   -7.1509   15.8720 C   0  0  0  0  0  0  0  0  0  0  0  0
    6.8009   -7.8696   17.2723 C   0  0  0  0  0  0  0  0  0  0  0  0
    1.4950  -10.3176   17.5913 C   0  0  0  0  0  0  0  0  0  0  0  0
    8.6588   -0.4485   26.4478 C   0  0  0  0  0  0  0  0  0  0  0  0
    9.7339   -6.1177   18.2608 C   0  0  0  0  0  0  0  0  0  0  0  0
   11.4744   -2.5467   19.8330 O   0  0  0  0  0  0  0  0  0  0  0  0
    4.8043   -9.2338   15.5008 C   0  0  0  0  0  0  0  0  0  0  0  0
    5.7493   -8.4174   14.8578 C   0  0  0  0  0  0  0  0  0  0  0  0
    9.1255   -6.0380   16.1062 C   0  0  0  0  0  0  0  0  0  0  0  0
    1.7786  -12.7927   20.8800 C   0  0  0  0  0  0  0  0  0  0  0  0
    8.7765    1.2184   24.5006 C   0  0  0  0  0  0  0  0  0  0  0  0
    0.5106  -11.7539   19.1726 N   0  0  0  0  0  0  0  0  0  0  0  0
    9.6234   -5.4102   17.1641 C   0  0  0  0  0  0  0  0  0  0  0  0
    3.7746  -10.0273   17.5425 C   0  0  0  0  0  0  0  0  0  0  0  0
    0.5906  -12.4780   20.2884 C   0  0  0  0  0  0  0  0  0  0  0  0
    2.5656   -9.8162   16.9539 C   0  0  0  0  0  0  0  0  0  0  0  0
    9.2090   -7.2313   18.3072 O   0  0  0  0  0  0  0  0  0  0  0  0
    1.5606  -11.1029   18.6503 C   0  0  0  0  0  0  0  0  0  0  0  0
    7.5980   -7.7819   16.0956 N   0  0  0  0  0  0  0  0  0  0  0  0
    5.8386   -8.6489   17.6963 He  0  0  0  0  0  0  0  0  0  0  0  0
  1  2  1  0
  1 18  1  0
  1 25  1  0
  3  9  4  0
  3 19  4  0
  3 27  4  0
  4 10  4  0
  4 32  4  0
  5 11  4  0
  5 14  4  0
  6 22  1  0
  6 26  4  0
  6 33  1  0
  7 24  4  0
  9 14  4  0
 10 28  4  0
 11 13  1  0
 11 27  4  0
 12 21  1  0
 12 28  1  0
 14 20  1  0
 15 23  2  0
 15 33  1  0
 16 33  1  0
 17 30  4  0
 17 32  4  0
 19 27  4  0
 19 31  1  0
 21 22  1  0
 23 27  1  0
 24 29  4  0
 26 29  4  0
 26 32  4  0
 28 30  4  0
 31 32  1  0
M  END
$$$$

 Created by Python create_sdf_string function

 34 36  0  0  0  0  0  0  0  0999 V2000
    9.5223    0.0217   25.2004 N   0  0  0  0  0  0  0  0  0  0  0  0
    9.7701   -1.1209   24.2069 C   0  0  0  0  0  0  0  0  0  0  0  0
   10.1879   -5.8167   19.4049 C   0  0  0  0  0  0  0  0  0  0  0  0
    2.8338  -11.3444   19.2287 C   0  0  0  0  0  0  0  0  0  0  0  0
   10.6066   -3.2824   17.8640 C   0  0  0  0  0  0  0  0  0  0  0  0
    7.1093   -8.7713   15.1573 C   0  0  0  0  0  0  0  0  0  0  0  0
    2.9239  -12.1713   20.3291 C   0  0  0  0  0  0  0  0  0  0  0  0
    5.7742   -8.8874   18.9514 O   0  0  0  0  0  0  0  0  0  0  0  0
   10.7026   -4.6534   19.8192 C   0  0  0  0  0  0  0  0  0  0  0  0
    3.9113  -10.6881   18.6310 C   0  0  0  0  0  0  0  0  0  0  0  0
   10.0613   -4.0927   16.9966 C   0  0  0  0  0  0  0  0  0  0  0  0
    4.8775   -9.2899   16.9085 N   0  0  0  0  0  0  0  0  0  0  0  0
    9.8320   -3.6283   15.8218 O   0  0  0  0  0  0  0  0  0  0  0  0
   10.9015   -3.5160   19.1566 C   0  0  0  0  0  0  0  0  0  0  0  0
    8.6556   -7.1482   15.8604 C   0  0  0  0  0  0  0  0  0  0  0  0
    6.8277   -7.8314   17.2592 C   0  0  0  0  0  0  0  0  0  0  0  0
    1.4847  -10.3743   17.5711 C   0  0  0  0  0  0  0  0  0  0  0  0
    8.6833   -0.4509   26.4129 C   0  0  0  0  0  0  0  0  0  0  0  0
    9.7100   -6.1098   18.2886 C   0  0  0  0  0  0  0  0  0  0  0  0
   11.4479   -2.5354   19.8346 O   0  0  0  0  0  0  0  0  0  0  0  0
    4.8124   -9.2510   15.4592 C   0  0  0  0  0  0  0  0  0  0  0  0
    5.7386   -8.4376   14.8664 C   0  0  0  0  0  0  0  0  0  0  0  0
    9.1371   -6.0292   16.0608 C   0  0  0  0  0  0  0  0  0  0  0  0
    1.8109  -12.7484   20.8604 C   0  0  0  0  0  0  0  0  0  0  0  0
    8.7933    1.1952   24.5048 C   0  0  0  0  0  0  0  0  0  0  0  0
    5.8373   -8.7059   17.7334 C   0  0  0  0  0  0  0  0  0  0  0  0
    0.4989  -11.7396   19.2246 N   0  0  0  0  0  0  0  0  0  0  0  0
    9.6797   -5.3720   17.1621 C   0  0  0  0  0  0  0  0  0  0  0  0
    3.7946   -9.9375   17.5185 C   0  0  0  0  0  0  0  0  0  0  0  0
    0.6136  -12.5016   20.2873 C   0  0  0  0  0  0  0  0  0  0  0  0
    2.5720   -9.8221   16.9858 C   0  0  0  0  0  0  0  0  0  0  0  0
    9.2243   -7.2787   18.2929 O   0  0  0  0  0  0  0  0  0  0  0  0
    1.5842  -11.1571   18.6760 C   0  0  0  0  0  0  0  0  0  0  0  0
    7.5859   -7.7903   16.0934 N   0  0  0  0  0  0  0  0  0  0  0  0
  1  2  1  0
  1 18  1  0
  1 25  1  0
  3  9  4  0
  3 19  4  0
  4  7  4  0
  4 10  4  0
  4 33  4  0
  5 11  4  0
  5 14  4  0
  6 22  1  0
  6 34  1  0
  7 24  4  0
  8 26  2  0
  9 14  4  0
 10 29  4  0
 11 13  1  0
 11 28  4  0
 12 21  1  0
 12 26  1  0
 12 29  1  0
 14 20  1  0
 15 23  2  0
 15 34  1  0
 16 26  1  0
 16 34  1  0
 17 31  4  0
 17 33  4  0
 19 28  4  0
 19 32  1  0
 21 22  1  0
 23 28  1  0
 24 30  4  0
 27 30  4  0
 27 33  4  0
 29 31  4  0
M  END
$$$$

 Created by Python create_sdf_string function

 34 33  0  0  0  0  0  0  0  0999 V2000
    9.4962   -0.0409   25.2305 N   0  0  0  0  0  0  0  0  0  0  0  0
    9.7413   -1.1345   24.2759 C   0  0  0  0  0  0  0  0  0  0  0  0
    2.7913  -11.2500   19.2504 C   0  0  0  0  0  0  0  0  0  0  0  0
   10.5609   -3.2739   17.9021 C   0  0  0  0  0  0  0  0  0  0  0  0
    7.0477   -8.7650   15.0907 C   0  0  0  0  0  0  0  0  0  0  0  0
    2.9324  -12.1935   20.3545 C   0  0  0  0  0  0  0  0  0  0  0  0
    5.7706   -8.8982   18.9279 O   0  0  0  0  0  0  0  0  0  0  0  0
   10.6398   -4.6679   19.8186 C   0  0  0  0  0  0  0  0  0  0  0  0
    3.8955  -10.6210   18.6136 O   0  0  0  0  0  0  0  0  0  0  0  0
    9.9790   -4.0943   17.0198 C   0  0  0  0  0  0  0  0  0  0  0  0
    4.9107   -9.2962   16.9313 N   0  0  0  0  0  0  0  0  0  0  0  0
    9.7908   -3.6566   15.8291 O   0  0  0  0  0  0  0  0  0  0  0  0
   10.8337   -3.4931   19.1710 C   0  0  0  0  0  0  0  0  0  0  0  0
    8.6097   -7.1424   15.8589 C   0  0  0  0  0  0  0  0  0  0  0  0
    1.4388  -10.3604   17.6096 C   0  0  0  0  0  0  0  0  0  0  0  0
    8.6775   -0.3919   26.3818 C   0  0  0  0  0  0  0  0  0  0  0  0
    9.7287   -6.0318   18.2690 C   0  0  0  0  0  0  0  0  0  0  0  0
   11.4917   -2.5160   19.8248 O   0  0  0  0  0  0  0  0  0  0  0  0
    4.8712   -9.2702   15.4358 C   0  0  0  0  0  0  0  0  0  0  0  0
    5.7063   -8.4107   14.8783 C   0  0  0  0  0  0  0  0  0  0  0  0
    9.1744   -6.1025   16.0862 C   0  0  0  0  0  0  0  0  0  0  0  0
    1.8594  -12.7233   20.9242 C   0  0  0  0  0  0  0  0  0  0  0  0
    8.8052    1.1639   24.5406 C   0  0  0  0  0  0  0  0  0  0  0  0
    5.8114   -8.7127   17.7032 C   0  0  0  0  0  0  0  0  0  0  0  0
    0.5257  -11.7705   19.2492 Br  0  0  0  0  0  0  0  0  0  0  0  0
    9.6849   -5.3576   17.1902 C   0  0  0  0  0  0  0  0  0  0  0  0
    3.8624   -9.9101   17.5236 C   0  0  0  0  0  0  0  0  0  0  0  0
    0.5497  -12.5084   20.2829 C   0  0  0  0  0  0  0  0  0  0  0  0
    2.5931   -9.8251   16.9994 C   0  0  0  0  0  0  0  0  0  0  0  0
    9.2826   -7.3135   18.3369 O   0  0  0  0  0  0  0  0  0  0  0  0
    1.6308  -11.1767   18.6931 C   0  0  0  0  0  0  0  0  0  0  0  0
    7.5544   -7.8140   16.1439 O   0  0  0  0  0  0  0  0  0  0  0  0
   10.1151   -5.8535   19.4093 He  0  0  0  0  0  0  0  0  0  0  0  0
    6.8886   -7.8659   17.3112 He  0  0  0  0  0  0  0  0  0  0  0  0
  1  2  1  0
  1 16  1  0
  1 23  1  0
  3  6  4  0
  3  9  4  0
  3 31  4  0
  4 10  4  0
  4 13  4  0
  5 20  1  0
  5 32  1  0
  6 22  4  0
  7 24  2  0
  8 13  4  0
  9 27  4  0
 10 12  1  0
 10 26  4  0
 11 19  1  0
 11 24  1  0
 11 27  1  0
 13 18  1  0
 14 21  2  0
 14 32  1  0
 15 29  4  0
 15 31  4  0
 17 26  4  0
 17 30  1  0
 19 20  1  0
 21 26  1  0
 21 29  1  0
 25 28  4  0
 25 30  3  0
 25 31  4  0
 27 29  4  0
M  END
$$$$

 Created by Python create_sdf_string function

 34 36  0  0  0  0  0  0  0  0999 V2000
    9.4739   -0.0254   25.2107 N   0  0  0  0  0  0  0  0  0  0  0  0
    9.7530   -1.1532   24.2456 C   0  0  0  0  0  0  0  0  0  0  0  0
   10.1504   -5.8183   19.4419 C   0  0  0  0  0  0  0  0  0  0  0  0
    2.8425  -11.3006   19.2261 C   0  0  0  0  0  0  0  0  0  0  0  0
   10.5552   -3.2891   17.8968 C   0  0  0  0  0  0  0  0  0  0  0  0
    7.0683   -8.7217   15.0899 C   0  0  0  0  0  0  0  0  0  0  0  0
    2.9699  -12.1246   20.3339 C   0  0  0  0  0  0  0  0  0  0  0  0
    5.7657   -8.8990   18.9291 O   0  0  0  0  0  0  0  0  0  0  0  0
   10.6464   -4.6593   19.8395 C   0  0  0  0  0  0  0  0  0  0  0  0
    3.8984  -10.6126   18.6482 C   0  0  0  0  0  0  0  0  0  0  0  0
   10.0248   -4.0902   17.0199 C   0  0  0  0  0  0  0  0  0  0  0  0
    4.8717   -9.2868   16.9077 N   0  0  0  0  0  0  0  0  0  0  0  0
    9.8046   -3.6543   15.8345 O   0  0  0  0  0  0  0  0  0  0  0  0
   10.8533   -3.5393   19.1814 C   0  0  0  0  0  0  0  0  0  0  0  0
    8.5931   -7.1504   15.8608 C   0  0  0  0  0  0  0  0  0  0  0  0
    6.8682   -7.9344   17.2614 C   0  0  0  0  0  0  0  0  0  0  0  0
    1.5052  -10.3789   17.5742 C   0  0  0  0  0  0  0  0  0  0  0  0
    8.6788   -0.4262   26.4194 C   0  0  0  0  0  0  0  0  0  0  0  0
    9.7065   -6.1138   18.3152 C   0  0  0  0  0  0  0  0  0  0  0  0
   11.4350   -2.5376   19.8369 O   0  0  0  0  0  0  0  0  0  0  0  0
    4.8536   -9.3121   15.4544 C   0  0  0  0  0  0  0  0  0  0  0  0
    5.6757   -8.3918   14.8668 C   0  0  0  0  0  0  0  0  0  0  0  0
    9.1653   -6.0738   16.0608 C   0  0  0  0  0  0  0  0  0  0  0  0
    1.8686  -12.7256   20.9080 C   0  0  0  0  0  0  0  0  0  0  0  0
    8.8240    1.1692   24.5176 C   0  0  0  0  0  0  0  0  0  0  0  0
    5.8455   -8.7149   17.7320 C   0  0  0  0  0  0  0  0  0  0  0  0
    0.5103  -11.7775   19.2657 N   0  0  0  0  0  0  0  0  0  0  0  0
    9.6640   -5.3806   17.1810 C   0  0  0  0  0  0  0  0  0  0  0  0
    3.8135   -9.8958   17.5201 C   0  0  0  0  0  0  0  0  0  0  0  0
    0.6352  -12.5415   20.3481 C   0  0  0  0  0  0  0  0  0  0  0  0
    2.5845   -9.8192   17.0008 C   0  0  0  0  0  0  0  0  0  0  0  0
    9.2556   -7.3094   18.3153 O   0  0  0  0  0  0  0  0  0  0  0  0
    1.5860  -11.1561   18.6931 C   0  0  0  0  0  0  0  0  0  0  0  0
    7.5321   -7.8230   16.1063 N   0  0  0  0  0  0  0  0  0  0  0  0
  1  2  1  0
  1 18  1  0
  1 25  1  0
  3  9  4  0
  3 19  4  0
  4  7  4  0
  4 10  4  0
  4 33  4  0
  5 11  4  0
  5 14  4  0
  6 22  1  0
  6 34  1  0
  7 24  4  0
  8 26  2  0
  9 14  4  0
 10 29  4  0
 11 13  1  0
 11 28  4  0
 12 21  1  0
 12 26  1  0
 12 29  1  0
 14 20  1  0
 15 23  2  0
 15 34  1  0
 16 26  1  0
 16 34  1  0
 17 31  4  0
 17 33  4  0
 19 28  4  0
 19 32  1  0
 21 22  1  0
 23 28  1  0
 24 30  4  0
 27 30  4  0
 27 33  4  0
 29 31  4  0
M  END
$$$$

 Created by Python create_sdf_string function

 34 36  0  0  0  0  0  0  0  0999 V2000
    9.4852   -0.0145   25.2734 N   0  0  0  0  0  0  0  0  0  0  0  0
   10.1615   -5.8519   19.3902 C   0  0  0  0  0  0  0  0  0  0  0  0
    2.8182  -11.3009   19.2739 C   0  0  0  0  0  0  0  0  0  0  0  0
   10.5107   -3.3077   17.8429 C   0  0  0  0  0  0  0  0  0  0  0  0
    7.0642   -8.7561   15.0970 C   0  0  0  0  0  0  0  0  0  0  0  0
    2.9341  -12.0821   20.3880 C   0  0  0  0  0  0  0  0  0  0  0  0
    5.7449   -8.9041   18.9650 O   0  0  0  0  0  0  0  0  0  0  0  0
   10.6076   -4.6501   19.7679 C   0  0  0  0  0  0  0  0  0  0  0  0
    3.9306  -10.6722   18.6349 C   0  0  0  0  0  0  0  0  0  0  0  0
   10.0268   -4.0936   17.0298 C   0  0  0  0  0  0  0  0  0  0  0  0
    4.8936   -9.2976   16.8900 N   0  0  0  0  0  0  0  0  0  0  0  0
    9.7430   -3.6255   15.9150 O   0  0  0  0  0  0  0  0  0  0  0  0
   10.8368   -3.5330   19.1658 S   0  0  0  0  0  0  0  0  0  0  0  0
    8.6034   -7.1482   15.8327 C   0  0  0  0  0  0  0  0  0  0  0  0
    6.8819   -7.9586   17.2795 C   0  0  0  0  0  0  0  0  0  0  0  0
    1.5284  -10.4148   17.5803 C   0  0  0  0  0  0  0  0  0  0  0  0
    8.6721   -0.4129   26.4321 C   0  0  0  0  0  0  0  0  0  0  0  0
    9.7240   -6.1747   18.3107 C   0  0  0  0  0  0  0  0  0  0  0  0
   11.4539   -2.5762   19.8778 O   0  0  0  0  0  0  0  0  0  0  0  0
    4.8556   -9.3690   15.4545 C   0  0  0  0  0  0  0  0  0  0  0  0
    5.6570   -8.3732   14.8344 C   0  0  0  0  0  0  0  0  0  0  0  0
    9.1603   -6.1132   16.0652 C   0  0  0  0  0  0  0  0  0  0  0  0
    1.8773  -12.6930   20.9185 C   0  0  0  0  0  0  0  0  0  0  0  0
    8.7893    1.1142   24.4605 C   0  0  0  0  0  0  0  0  0  0  0  0
    5.8292   -8.7188   17.6843 C   0  0  0  0  0  0  0  0  0  0  0  0
    0.5791  -11.7344   19.2656 N   0  0  0  0  0  0  0  0  0  0  0  0
    9.6122   -5.3218   17.1279 C   0  0  0  0  0  0  0  0  0  0  0  0
    3.8488   -9.8554   17.4747 C   0  0  0  0  0  0  0  0  0  0  0  0
    0.6008  -12.5251   20.3914 C   0  0  0  0  0  0  0  0  0  0  0  0
    2.6046   -9.7789   16.9006 C   0  0  0  0  0  0  0  0  0  0  0  0
    9.2695   -7.2782   18.3368 O   0  0  0  0  0  0  0  0  0  0  0  0
    1.6078  -11.1445   18.6958 C   0  0  0  0  0  0  0  0  0  0  0  0
    7.5400   -7.7896   16.1171 N   0  0  0  0  0  0  0  0  0  0  0  0
    9.7002   -1.1354   24.3030 He  0  0  0  0  0  0  0  0  0  0  0  0
  1 17  1  0
  1 24  1  0
  2  8  4  0
  2 18  4  0
  3  6  4  0
  3  9  4  0
  3 32  4  0
  4 10  4  0
  4 13  4  0
  4 33  1  0
  5 28  3  0
  5 33  1  0
  7 25  2  0
  8 13  4  0
 10 12  1  0
 10 27  4  0
 11 20  1  0
 11 22  3  0
 11 25  1  0
 11 28  1  0
 13 19  1  0
 14 22  2  0
 14 33  1  0
 15 25  1  0
 15 33  1  0
 16 30  4  0
 16 32  4  0
 18 27  4  0
 18 31  1  0
 20 21  1  0
 20 22  4  0
 22 27  1  0
 23 29  4  0
 23 30  2  0
 26 29  4  0
 26 32  4  0
M  END
$$$$

 Created by Python create_sdf_string function

 34 36  0  0  0  0  0  0  0  0999 V2000
    9.4727   -0.0041   25.2462 N   0  0  0  0  0  0  0  0  0  0  0  0
    9.7086   -1.1487   24.2927 C   0  0  0  0  0  0  0  0  0  0  0  0
   10.1585   -5.8446   19.4091 C   0  0  0  0  0  0  0  0  0  0  0  0
    2.8634  -11.3093   19.2737 C   0  0  0  0  0  0  0  0  0  0  0  0
   10.5457   -3.3097   17.8958 C   0  0  0  0  0  0  0  0  0  0  0  0
    7.0712   -8.7240   15.0840 C   0  0  0  0  0  0  0  0  0  0  0  0
    2.9620  -12.1052   20.3931 C   0  0  0  0  0  0  0  0  0  0  0  0
    5.7555   -8.9022   18.9423 O   0  0  0  0  0  0  0  0  0  0  0  0
   10.6496   -4.6685   19.8210 C   0  0  0  0  0  0  0  0  0  0  0  0
    3.9370  -10.6393   18.6641 C   0  0  0  0  0  0  0  0  0  0  0  0
   10.0042   -4.1094   17.0075 C   0  0  0  0  0  0  0  0  0  0  0  0
    4.8819   -9.2887   16.8987 N   0  0  0  0  0  0  0  0  0  0  0  0
    9.7653   -3.6370   15.8611 O   0  0  0  0  0  0  0  0  0  0  0  0
   10.8455   -3.5498   19.1724 C   0  0  0  0  0  0  0  0  0  0  0  0
    8.5916   -7.1410   15.8166 C   0  0  0  0  0  0  0  0  0  0  0  0
    6.8892   -7.9520   17.2546 C   0  0  0  0  0  0  0  0  0  0  0  0
    1.5287  -10.4130   17.5652 C   0  0  0  0  0  0  0  0  0  0  0  0
    8.6631   -0.4269   26.4515 C   0  0  0  0  0  0  0  0  0  0  0  0
    9.6990   -6.1482   18.2962 C   0  0  0  0  0  0  0  0  0  0  0  0
   11.4067   -2.5833   19.8550 O   0  0  0  0  0  0  0  0  0  0  0  0
    4.8261   -9.3627   15.4487 C   0  0  0  0  0  0  0  0  0  0  0  0
    5.6501   -8.3974   14.8545 C   0  0  0  0  0  0  0  0  0  0  0  0
    9.1440   -6.0817   16.0425 C   0  0  0  0  0  0  0  0  0  0  0  0
    1.8703  -12.6969   20.9457 C   0  0  0  0  0  0  0  0  0  0  0  0
    8.7898    1.1348   24.4630 C   0  0  0  0  0  0  0  0  0  0  0  0
    5.8405   -8.7358   17.7282 C   0  0  0  0  0  0  0  0  0  0  0  0
    0.5450  -11.7522   19.2785 N   0  0  0  0  0  0  0  0  0  0  0  0
    9.6520   -5.4016   17.1542 C   0  0  0  0  0  0  0  0  0  0  0  0
    3.8241   -9.9111   17.5172 C   0  0  0  0  0  0  0  0  0  0  0  0
    0.6602  -12.4960   20.3622 C   0  0  0  0  0  0  0  0  0  0  0  0
    2.5928   -9.8402   16.9650 C   0  0  0  0  0  0  0  0  0  0  0  0
    9.2588   -7.3125   18.3065 O   0  0  0  0  0  0  0  0  0  0  0  0
    1.6202  -11.1649   18.7091 C   0  0  0  0  0  0  0  0  0  0  0  0
    7.5619   -7.8064   16.0727 N   0  0  0  0  0  0  0  0  0  0  0  0
  1  2  1  0
  1 18  1  0
  1 25  1  0
  3  9  4  0
  3 19  4  0
  4  7  4  0
  4 10  4  0
  4 33  4  0
  5 11  4  0
  5 14  4  0
  6 22  1  0
  6 34  1  0
  7 24  4  0
  8 26  2  0
  9 14  4  0
 10 29  4  0
 11 13  1  0
 11 28  4  0
 12 21  1  0
 12 26  1  0
 12 29  1  0
 14 20  1  0
 15 23  2  0
 15 34  1  0
 16 26  1  0
 16 34  1  0
 17 31  4  0
 17 33  4  0
 19 28  4  0
 19 32  1  0
 21 22  1  0
 23 28  1  0
 24 30  4  0
 27 30  4  0
 27 33  4  0
 29 31  4  0
M  END
$$$$

 Created by Python create_sdf_string function

 34 41  0  0  0  0  0  0  0  0999 V2000
    9.4660   -0.0226   25.2441 N   0  0  0  0  0  0  0  0  0  0  0  0
    9.6811   -1.1008   24.2968 C   0  0  0  0  0  0  0  0  0  0  0  0
   10.1371   -5.8867   19.3689 C   0  0  0  0  0  0  0  0  0  0  0  0
    2.8873  -11.3469   19.2460 C   0  0  0  0  0  0  0  0  0  0  0  0
   10.5411   -3.3012   17.9037 C   0  0  0  0  0  0  0  0  0  0  0  0
    7.1041   -8.7556   15.0862 C   0  0  0  0  0  0  0  0  0  0  0  0
    2.9715  -12.0771   20.4015 C   0  0  0  0  0  0  0  0  0  0  0  0
    5.7347   -8.8754   18.9708 O   0  0  0  0  0  0  0  0  0  0  0  0
   10.6427   -4.6834   19.8353 C   0  0  0  0  0  0  0  0  0  0  0  0
    3.9786  -10.6441   18.6469 C   0  0  0  0  0  0  0  0  0  0  0  0
    9.9870   -4.1507   17.0196 C   0  0  0  0  0  0  0  0  0  0  0  0
    4.8764   -9.3186   16.8257 N   0  0  0  0  0  0  0  0  0  0  0  0
    9.7054   -3.6404   15.8143 O   0  0  0  0  0  0  0  0  0  0  0  0
   10.8163   -3.5721   19.1493 C   0  0  0  0  0  0  0  0  0  0  0  0
    8.5474   -7.1409   15.7987 C   0  0  0  0  0  0  0  0  0  0  0  0
    6.8612   -7.9448   17.2982 C   0  0  0  0  0  0  0  0  0  0  0  0
    1.5446  -10.4290   17.6132 C   0  0  0  0  0  0  0  0  0  0  0  0
    8.7143   -0.4705   26.4136 C   0  0  0  0  0  0  0  0  0  0  0  0
    9.7071   -6.1767   18.2493 C   0  0  0  0  0  0  0  0  0  0  0  0
   11.3623   -2.6249   19.9039 O   0  0  0  0  0  0  0  0  0  0  0  0
    4.8386   -9.3969   15.4129 C   0  0  0  0  0  0  0  0  0  0  0  0
    5.6948   -8.3692   14.8501 C   0  0  0  0  0  0  0  0  0  0  0  0
    9.1413   -6.0748   16.0630 C   0  0  0  0  0  0  0  0  0  0  0  0
    1.9004  -12.7158   20.9150 C   0  0  0  0  0  0  0  0  0  0  0  0
    8.8324    1.1091   24.4542 C   0  0  0  0  0  0  0  0  0  0  0  0
    0.5405  -11.7498   19.3195 N   0  0  0  0  0  0  0  0  0  0  0  0
    9.6453   -5.4162   17.1595 C   0  0  0  0  0  0  0  0  0  0  0  0
    3.8381   -9.9300   17.5012 C   0  0  0  0  0  0  0  0  0  0  0  0
    0.6789  -12.4823   20.3484 C   0  0  0  0  0  0  0  0  0  0  0  0
    2.5915   -9.8133   16.9317 C   0  0  0  0  0  0  0  0  0  0  0  0
    9.2497   -7.2832   18.2760 O   0  0  0  0  0  0  0  0  0  0  0  0
    1.6506  -11.1547   18.7245 C   0  0  0  0  0  0  0  0  0  0  0  0
    7.5929   -7.7914   16.0753 N   0  0  0  0  0  0  0  0  0  0  0  0
    5.8448   -8.7626   17.7137 He  0  0  0  0  0  0  0  0  0  0  0  0
  1  2  1  0
  1 18  1  0
  1 25  1  0
  3  9  4  0
  3 19  4  0
  4  7  4  0
  4 10  4  0
  4 28  1  0
  4 32  4  0
  5 11  4  0
  5 14  4  0
  5 31  4  0
  6 22  1  0
  6 33  1  0
  7 24  4  0
  7 26  4  0
  9 14  4  0
  9 23  1  0
 10 28  4  0
 11 13  1  0
 11 22  3  0
 11 27  4  0
 12 21  1  0
 12 22  3  0
 12 23  3  0
 12 28  1  0
 14 20  1  0
 15 23  2  0
 15 33  1  0
 16 33  1  0
 17 30  4  0
 17 32  1  0
 19 25  3  0
 19 27  4  0
 19 31  1  0
 21 22  1  0
 23 27  1  0
 24 29  4  0
 26 29  4  0
 26 32  4  0
 28 30  4  0
M  END
$$$$

 Created by Python create_sdf_string function

 34 36  0  0  0  0  0  0  0  0999 V2000
    9.4463   -0.0228   25.2106 N   0  0  0  0  0  0  0  0  0  0  0  0
    9.7119   -1.1589   24.2522 C   0  0  0  0  0  0  0  0  0  0  0  0
   10.1560   -5.8797   19.3962 C   0  0  0  0  0  0  0  0  0  0  0  0
    2.9138  -11.3130   19.2742 C   0  0  0  0  0  0  0  0  0  0  0  0
   10.5356   -3.3283   17.8863 C   0  0  0  0  0  0  0  0  0  0  0  0
    7.0886   -8.7406   15.0893 C   0  0  0  0  0  0  0  0  0  0  0  0
    3.0125  -12.1183   20.3922 C   0  0  0  0  0  0  0  0  0  0  0  0
    5.7440   -8.8927   18.9413 O   0  0  0  0  0  0  0  0  0  0  0  0
   10.6432   -4.7250   19.8320 C   0  0  0  0  0  0  0  0  0  0  0  0
    3.9778  -10.6372   18.6543 C   0  0  0  0  0  0  0  0  0  0  0  0
    9.9979   -4.1269   17.0003 C   0  0  0  0  0  0  0  0  0  0  0  0
    4.8882   -9.3149   16.8835 N   0  0  0  0  0  0  0  0  0  0  0  0
    9.7399   -3.6624   15.8251 O   0  0  0  0  0  0  0  0  0  0  0  0
   10.8176   -3.5973   19.1718 C   0  0  0  0  0  0  0  0  0  0  0  0
    8.5653   -7.1236   15.7958 C   0  0  0  0  0  0  0  0  0  0  0  0
    6.8722   -7.9406   17.2708 C   0  0  0  0  0  0  0  0  0  0  0  0
    1.5448  -10.4263   17.5850 C   0  0  0  0  0  0  0  0  0  0  0  0
    8.7107   -0.4626   26.4254 C   0  0  0  0  0  0  0  0  0  0  0  0
    9.6992   -6.1615   18.2729 C   0  0  0  0  0  0  0  0  0  0  0  0
   11.3459   -2.6176   19.8864 O   0  0  0  0  0  0  0  0  0  0  0  0
    4.8446   -9.3812   15.4187 C   0  0  0  0  0  0  0  0  0  0  0  0
    5.6949   -8.4211   14.8392 C   0  0  0  0  0  0  0  0  0  0  0  0
    9.1369   -6.0666   16.0310 C   0  0  0  0  0  0  0  0  0  0  0  0
    1.9184  -12.6981   20.9270 C   0  0  0  0  0  0  0  0  0  0  0  0
    8.8293    1.1313   24.4716 C   0  0  0  0  0  0  0  0  0  0  0  0
    5.8365   -8.7466   17.7268 C   0  0  0  0  0  0  0  0  0  0  0  0
    0.5777  -11.7562   19.3122 N   0  0  0  0  0  0  0  0  0  0  0  0
    9.6469   -5.4126   17.1473 C   0  0  0  0  0  0  0  0  0  0  0  0
    3.8299   -9.9424   17.5171 C   0  0  0  0  0  0  0  0  0  0  0  0
    0.7090  -12.5014   20.3806 C   0  0  0  0  0  0  0  0  0  0  0  0
    2.5884   -9.8665   16.9762 C   0  0  0  0  0  0  0  0  0  0  0  0
    9.2457   -7.3331   18.2575 O   0  0  0  0  0  0  0  0  0  0  0  0
    1.6518  -11.1769   18.7315 C   0  0  0  0  0  0  0  0  0  0  0  0
    7.5552   -7.8180   16.0831 N   0  0  0  0  0  0  0  0  0  0  0  0
  1  2  1  0
  1 18  1  0
  1 25  1  0
  3  9  4  0
  3 19  4  0
  4  7  4  0
  4 10  4  0
  4 33  4  0
  5 11  4  0
  5 14  4  0
  6 22  1  0
  6 34  1  0
  7 24  4  0
  8 26  2  0
  9 14  4  0
 10 29  4  0
 11 13  1  0
 11 28  4  0
 12 21  1  0
 12 26  1  0
 12 29  1  0
 14 20  1  0
 15 23  2  0
 15 34  1  0
 16 26  1  0
 16 34  1  0
 17 31  4  0
 17 33  4  0
 19 28  4  0
 19 32  1  0
 21 22  1  0
 23 28  1  0
 24 30  4  0
 27 30  4  0
 27 33  4  0
 29 31  4  0
M  END
$$$$

 Created by Python create_sdf_string function

 34 40  0  0  0  0  0  0  0  0999 V2000
    9.4321    0.0026   25.2251 N   0  0  0  0  0  0  0  0  0  0  0  0
    9.7443   -1.1531   24.2235 C   0  0  0  0  0  0  0  0  0  0  0  0
   10.1115   -5.8723   19.3980 C   0  0  0  0  0  0  0  0  0  0  0  0
    2.9286  -11.3345   19.3019 C   0  0  0  0  0  0  0  0  0  0  0  0
   10.5353   -3.3061   17.9345 C   0  0  0  0  0  0  0  0  0  0  0  0
    7.1221   -8.7312   15.1142 C   0  0  0  0  0  0  0  0  0  0  0  0
    3.0623  -12.1148   20.3785 C   0  0  0  0  0  0  0  0  0  0  0  0
    5.7337   -8.8921   18.9370 O   0  0  0  0  0  0  0  0  0  0  0  0
   10.6763   -4.7287   19.8510 C   0  0  0  0  0  0  0  0  0  0  0  0
    3.9529  -10.6220   18.6594 C   0  0  0  0  0  0  0  0  0  0  0  0
   10.0059   -4.0817   16.9806 C   0  0  0  0  0  0  0  0  0  0  0  0
    4.8726   -9.2869   16.8678 N   0  0  0  0  0  0  0  0  0  0  0  0
    9.7226   -3.6513   15.7782 O   0  0  0  0  0  0  0  0  0  0  0  0
   10.7744   -3.5623   19.1702 C   0  0  0  0  0  0  0  0  0  0  0  0
    8.5777   -7.1147   15.7802 C   0  0  0  0  0  0  0  0  0  0  0  0
    6.8868   -7.9292   17.2831 C   0  0  0  0  0  0  0  0  0  0  0  0
    1.5231  -10.4158   17.5958 C   0  0  0  0  0  0  0  0  0  0  0  0
    8.6378   -0.4938   26.4403 C   0  0  0  0  0  0  0  0  0  0  0  0
    9.6837   -6.2231   18.2279 C   0  0  0  0  0  0  0  0  0  0  0  0
   11.3794   -2.6220   19.8637 O   0  0  0  0  0  0  0  0  0  0  0  0
    4.8634   -9.3828   15.4028 C   0  0  0  0  0  0  0  0  0  0  0  0
    5.6656   -8.4322   14.8364 C   0  0  0  0  0  0  0  0  0  0  0  0
    9.0872   -6.0931   16.0068 C   0  0  0  0  0  0  0  0  0  0  0  0
    1.8795  -12.7074   20.9369 C   0  0  0  0  0  0  0  0  0  0  0  0
    8.8263    1.1381   24.4613 C   0  0  0  0  0  0  0  0  0  0  0  0
    5.8412   -8.7598   17.7018 C   0  0  0  0  0  0  0  0  0  0  0  0
    0.5589  -11.7241   19.3074 N   0  0  0  0  0  0  0  0  0  0  0  0
    9.6249   -5.4152   17.1617 C   0  0  0  0  0  0  0  0  0  0  0  0
    3.8455   -9.9464   17.5508 C   0  0  0  0  0  0  0  0  0  0  0  0
    0.7223  -12.5044   20.3564 C   0  0  0  0  0  0  0  0  0  0  0  0
    2.5708   -9.8608   16.9805 C   0  0  0  0  0  0  0  0  0  0  0  0
    9.3020   -7.3273   18.2361 O   0  0  0  0  0  0  0  0  0  0  0  0
    1.6510  -11.1748   18.7725 C   0  0  0  0  0  0  0  0  0  0  0  0
    7.5942   -7.8240   16.0488 N   0  0  0  0  0  0  0  0  0  0  0  0
  1  2  1  0
  1 18  1  0
  1 25  1  0
  3  9  4  0
  3 19  4  0
  3 29  1  0
  4  7  4  0
  4 10  4  0
  4 33  4  0
  5 11  4  0
  5 25  2  0
  6 22  1  0
  6 34  1  0
  7 24  4  0
  8 26  2  0
  9 14  4  0
 10 29  4  0
 11 13  1  0
 11 28  4  0
 11 33  3  0
 12 21  1  0
 12 26  1  0
 12 29  1  0
 14 20  1  0
 15 23  2  0
 15 24  1  0
 15 28  4  0
 15 34  1  0
 16 26  1  0
 16 34  1  0
 17 31  4  0
 17 33  4  0
 19 28  4  0
 19 32  1  0
 21 22  1  0
 23 28  1  0
 24 30  4  0
 27 30  4  0
 27 33  4  0
 29 31  4  0
M  END
$$$$

 Created by Python create_sdf_string function

 34 36  0  0  0  0  0  0  0  0999 V2000
    9.4379   -0.0199   25.2113 N   0  0  0  0  0  0  0  0  0  0  0  0
    9.7421   -1.1614   24.2238 C   0  0  0  0  0  0  0  0  0  0  0  0
   10.1410   -5.8972   19.3931 C   0  0  0  0  0  0  0  0  0  0  0  0
    2.9376  -11.3175   19.2952 C   0  0  0  0  0  0  0  0  0  0  0  0
   10.5217   -3.3390   17.9090 C   0  0  0  0  0  0  0  0  0  0  0  0
    7.0751   -8.7314   15.0960 C   0  0  0  0  0  0  0  0  0  0  0  0
    3.0476  -12.1405   20.4072 C   0  0  0  0  0  0  0  0  0  0  0  0
    5.7423   -8.9047   18.9195 O   0  0  0  0  0  0  0  0  0  0  0  0
   10.6381   -4.7386   19.8338 C   0  0  0  0  0  0  0  0  0  0  0  0
    3.9915  -10.6225   18.6791 C   0  0  0  0  0  0  0  0  0  0  0  0
    9.9925   -4.1317   16.9998 C   0  0  0  0  0  0  0  0  0  0  0  0
    4.8793   -9.3050   16.8941 N   0  0  0  0  0  0  0  0  0  0  0  0
    9.7556   -3.6693   15.8126 O   0  0  0  0  0  0  0  0  0  0  0  0
   10.8143   -3.5883   19.1864 C   0  0  0  0  0  0  0  0  0  0  0  0
    8.5601   -7.1366   15.7785 C   0  0  0  0  0  0  0  0  0  0  0  0
    6.8835   -7.9530   17.2531 C   0  0  0  0  0  0  0  0  0  0  0  0
    1.5486  -10.4443   17.6200 C   0  0  0  0  0  0  0  0  0  0  0  0
    8.6410   -0.4949   26.4202 C   0  0  0  0  0  0  0  0  0  0  0  0
    9.6891   -6.1857   18.2601 C   0  0  0  0  0  0  0  0  0  0  0  0
   11.3500   -2.6154   19.8722 O   0  0  0  0  0  0  0  0  0  0  0  0
    4.8499   -9.3930   15.4351 C   0  0  0  0  0  0  0  0  0  0  0  0
    5.6848   -8.4409   14.8569 C   0  0  0  0  0  0  0  0  0  0  0  0
    9.1122   -6.0602   16.0081 C   0  0  0  0  0  0  0  0  0  0  0  0
    1.9450  -12.7054   20.9389 C   0  0  0  0  0  0  0  0  0  0  0  0
    8.8180    1.1453   24.4757 C   0  0  0  0  0  0  0  0  0  0  0  0
    5.8430   -8.7379   17.7204 C   0  0  0  0  0  0  0  0  0  0  0  0
    0.5953  -11.7543   19.3239 N   0  0  0  0  0  0  0  0  0  0  0  0
    9.6333   -5.4125   17.1380 C   0  0  0  0  0  0  0  0  0  0  0  0
    3.8317   -9.9330   17.5359 C   0  0  0  0  0  0  0  0  0  0  0  0
    0.7313  -12.5074   20.3821 C   0  0  0  0  0  0  0  0  0  0  0  0
    2.6001   -9.8805   17.0120 C   0  0  0  0  0  0  0  0  0  0  0  0
    9.2667   -7.3609   18.2140 O   0  0  0  0  0  0  0  0  0  0  0  0
    1.6635  -11.1824   18.7556 C   0  0  0  0  0  0  0  0  0  0  0  0
    7.5587   -7.8134   16.0529 N   0  0  0  0  0  0  0  0  0  0  0  0
  1  2  1  0
  1 18  1  0
  1 25  1  0
  3  9  4  0
  3 19  4  0
  4  7  4  0
  4 10  4  0
  4 33  4  0
  5 11  4  0
  5 14  4  0
  6 22  1  0
  6 34  1  0
  7 24  4  0
  8 26  2  0
  9 14  4  0
 10 29  4  0
 11 13  1  0
 11 28  4  0
 12 21  1  0
 12 26  1  0
 12 29  1  0
 14 20  1  0
 15 23  2  0
 15 34  1  0
 16 26  1  0
 16 34  1  0
 17 31  4  0
 17 33  4  0
 19 28  4  0
 19 32  1  0
 21 22  1  0
 23 28  1  0
 24 30  4  0
 27 30  4  0
 27 33  4  0
 29 31  4  0
M  END
$$$$

 Created by Python create_sdf_string function

 34 35  0  0  0  0  0  0  0  0999 V2000
    9.4363   -0.0280   25.1934 N   0  0  0  0  0  0  0  0  0  0  0  0
    9.7616   -1.1363   24.2174 C   0  0  0  0  0  0  0  0  0  0  0  0
   10.1406   -5.8855   19.4125 C   0  0  0  0  0  0  0  0  0  0  0  0
    2.9629  -11.2999   19.3025 C   0  0  0  0  0  0  0  0  0  0  0  0
   10.5460   -3.3281   17.8994 C   0  0  0  0  0  0  0  0  0  0  0  0
    7.0793   -8.6864   15.1142 C   0  0  0  0  0  0  0  0  0  0  0  0
    3.0604  -12.1325   20.4061 C   0  0  0  0  0  0  0  0  0  0  0  0
    5.7392   -8.9273   18.9074 O   0  0  0  0  0  0  0  0  0  0  0  0
   10.6611   -4.7367   19.8605 C   0  0  0  0  0  0  0  0  0  0  0  0
    3.9913  -10.6311   18.6670 C   0  0  0  0  0  0  0  0  0  0  0  0
   10.0126   -4.1528   17.0219 C   0  0  0  0  0  0  0  0  0  0  0  0
    9.7782   -3.7052   15.8131 O   0  0  0  0  0  0  0  0  0  0  0  0
   10.8070   -3.6127   19.1592 C   0  0  0  0  0  0  0  0  0  0  0  0
    8.5502   -7.1423   15.7638 C   0  0  0  0  0  0  0  0  0  0  0  0
    6.8781   -7.9400   17.2755 C   0  0  0  0  0  0  0  0  0  0  0  0
    1.5509  -10.4401   17.6158 C   0  0  0  0  0  0  0  0  0  0  0  0
    8.6878   -0.4754   26.3885 C   0  0  0  0  0  0  0  0  0  0  0  0
    9.6645   -6.1645   18.2715 C   0  0  0  0  0  0  0  0  0  0  0  0
   11.3700   -2.6238   19.8493 O   0  0  0  0  0  0  0  0  0  0  0  0
    4.8508   -9.3594   15.4244 C   0  0  0  0  0  0  0  0  0  0  0  0
    5.6809   -8.4285   14.8561 C   0  0  0  0  0  0  0  0  0  0  0  0
    9.1250   -6.0620   15.9990 C   0  0  0  0  0  0  0  0  0  0  0  0
    1.9700  -12.6963   20.9100 C   0  0  0  0  0  0  0  0  0  0  0  0
    8.8017    1.1778   24.5010 C   0  0  0  0  0  0  0  0  0  0  0  0
    5.8443   -8.7314   17.7303 C   0  0  0  0  0  0  0  0  0  0  0  0
    0.6010  -11.7449   19.3408 N   0  0  0  0  0  0  0  0  0  0  0  0
    9.6465   -5.4246   17.1172 C   0  0  0  0  0  0  0  0  0  0  0  0
    3.8218   -9.9304   17.5280 C   0  0  0  0  0  0  0  0  0  0  0  0
    0.7292  -12.4952   20.3946 C   0  0  0  0  0  0  0  0  0  0  0  0
    2.6111   -9.9138   17.0005 C   0  0  0  0  0  0  0  0  0  0  0  0
    9.3011   -7.3397   18.2115 O   0  0  0  0  0  0  0  0  0  0  0  0
    1.6689  -11.1521   18.7555 C   0  0  0  0  0  0  0  0  0  0  0  0
    7.5596   -7.8161   16.0469 N   0  0  0  0  0  0  0  0  0  0  0  0
    4.8771   -9.3016   16.8941 He  0  0  0  0  0  0  0  0  0  0  0  0
  1  2  1  0
  1 15  3  0
  1 17  1  0
  1 24  1  0
  3  9  4  0
  3 18  4  0
  4  7  4  0
  4 10  4  0
  4 32  4  0
  5 11  4  0
  5 13  4  0
  6 21  1  0
  6 33  1  0
  7 23  4  0
  8 25  2  0
  9 13  4  0
 10 28  4  0
 11 12  1  0
 11 27  4  0
 13 16  4  0
 13 19  1  0
 14 22  2  0
 14 33  1  0
 15 25  1  0
 15 33  1  0
 16 30  4  0
 16 32  4  0
 18 25  2  0
 18 27  4  0
 18 31  1  0
 20 21  1  0
 22 27  1  0
 23 29  4  0
 26 32  4  0
 28 30  4  0
M  END
$$$$

 Created by Python create_sdf_string function

 34 36  0  0  0  0  0  0  0  0999 V2000
    9.4374   -0.0280   25.1748 N   0  0  0  0  0  0  0  0  0  0  0  0
    9.7619   -1.1406   24.1998 C   0  0  0  0  0  0  0  0  0  0  0  0
   10.1383   -5.9000   19.4027 C   0  0  0  0  0  0  0  0  0  0  0  0
    2.9683  -11.3140   19.3073 C   0  0  0  0  0  0  0  0  0  0  0  0
   10.5438   -3.3668   17.8974 C   0  0  0  0  0  0  0  0  0  0  0  0
    7.0540   -8.7007   15.0910 C   0  0  0  0  0  0  0  0  0  0  0  0
    3.0774  -12.1348   20.4150 C   0  0  0  0  0  0  0  0  0  0  0  0
    5.7649   -8.9206   18.8988 O   0  0  0  0  0  0  0  0  0  0  0  0
   10.6404   -4.7515   19.8365 C   0  0  0  0  0  0  0  0  0  0  0  0
    4.0213  -10.6173   18.6934 C   0  0  0  0  0  0  0  0  0  0  0  0
   10.0167   -4.1594   17.0096 C   0  0  0  0  0  0  0  0  0  0  0  0
    4.8808   -9.3015   16.8888 N   0  0  0  0  0  0  0  0  0  0  0  0
    9.8003   -3.7224   15.8256 O   0  0  0  0  0  0  0  0  0  0  0  0
   10.8230   -3.6188   19.1776 C   0  0  0  0  0  0  0  0  0  0  0  0
    8.5590   -7.1162   15.7759 C   0  0  0  0  0  0  0  0  0  0  0  0
    6.8868   -7.9468   17.2507 C   0  0  0  0  0  0  0  0  0  0  0  0
    1.5720  -10.4608   17.6239 C   0  0  0  0  0  0  0  0  0  0  0  0
    8.6903   -0.4833   26.3903 C   0  0  0  0  0  0  0  0  0  0  0  0
    9.6935   -6.1765   18.2736 C   0  0  0  0  0  0  0  0  0  0  0  0
   11.3530   -2.6257   19.8551 O   0  0  0  0  0  0  0  0  0  0  0  0
    4.8543   -9.3542   15.4526 C   0  0  0  0  0  0  0  0  0  0  0  0
    5.6671   -8.4315   14.8622 C   0  0  0  0  0  0  0  0  0  0  0  0
    9.1268   -6.0664   16.0070 C   0  0  0  0  0  0  0  0  0  0  0  0
    1.9792  -12.7076   20.9439 C   0  0  0  0  0  0  0  0  0  0  0  0
    8.8096    1.1680   24.4974 C   0  0  0  0  0  0  0  0  0  0  0  0
    5.8570   -8.7328   17.7179 C   0  0  0  0  0  0  0  0  0  0  0  0
    0.6240  -11.7579   19.3533 N   0  0  0  0  0  0  0  0  0  0  0  0
    9.6370   -5.4349   17.1504 C   0  0  0  0  0  0  0  0  0  0  0  0
    3.8447   -9.9362   17.5353 C   0  0  0  0  0  0  0  0  0  0  0  0
    0.7573  -12.5064   20.4144 C   0  0  0  0  0  0  0  0  0  0  0  0
    2.6216   -9.9073   17.0140 C   0  0  0  0  0  0  0  0  0  0  0  0
    9.2617   -7.3565   18.2093 O   0  0  0  0  0  0  0  0  0  0  0  0
    1.6915  -11.1866   18.7695 C   0  0  0  0  0  0  0  0  0  0  0  0
    7.5388   -7.8018   16.0589 N   0  0  0  0  0  0  0  0  0  0  0  0
  1  2  1  0
  1 18  1  0
  1 25  1  0
  3  9  4  0
  3 19  4  0
  4  7  4  0
  4 10  4  0
  4 33  4  0
  5 11  4  0
  5 14  4  0
  6 22  1  0
  6 34  1  0
  7 24  4  0
  8 26  2  0
  9 14  4  0
 10 29  4  0
 11 13  1  0
 11 28  4  0
 12 21  1  0
 12 26  1  0
 12 29  1  0
 14 20  1  0
 15 23  2  0
 15 34  1  0
 16 26  1  0
 16 34  1  0
 17 31  4  0
 17 33  4  0
 19 28  4  0
 19 32  1  0
 21 22  1  0
 23 28  1  0
 24 30  4  0
 27 30  4  0
 27 33  4  0
 29 31  4  0
M  END
$$$$

 Created by Python create_sdf_string function

 34 37  0  0  0  0  0  0  0  0999 V2000
    9.4264   -0.0206   25.1688 N   0  0  0  0  0  0  0  0  0  0  0  0
    9.7575   -1.1457   24.1874 C   0  0  0  0  0  0  0  0  0  0  0  0
   10.1236   -5.8939   19.3945 C   0  0  0  0  0  0  0  0  0  0  0  0
    2.9929  -11.3256   19.3178 C   0  0  0  0  0  0  0  0  0  0  0  0
   10.5391   -3.3559   17.9078 C   0  0  0  0  0  0  0  0  0  0  0  0
    7.0576   -8.6721   15.1046 C   0  0  0  0  0  0  0  0  0  0  0  0
    3.1007  -12.1422   20.4504 C   0  0  0  0  0  0  0  0  0  0  0  0
    5.7677   -8.9142   18.9095 O   0  0  0  0  0  0  0  0  0  0  0  0
   10.6558   -4.7540   19.8264 C   0  0  0  0  0  0  0  0  0  0  0  0
   10.0147   -4.1659   17.0050 C   0  0  0  0  0  0  0  0  0  0  0  0
    4.8660   -9.2940   16.8874 N   0  0  0  0  0  0  0  0  0  0  0  0
    9.7921   -3.7101   15.8151 O   0  0  0  0  0  0  0  0  0  0  0  0
   10.8037   -3.5988   19.1716 C   0  0  0  0  0  0  0  0  0  0  0  0
    8.5250   -7.0740   15.7892 C   0  0  0  0  0  0  0  0  0  0  0  0
    6.9013   -7.9540   17.2467 C   0  0  0  0  0  0  0  0  0  0  0  0
    1.5487  -10.4308   17.6278 C   0  0  0  0  0  0  0  0  0  0  0  0
    8.6906   -0.4772   26.3993 C   0  0  0  0  0  0  0  0  0  0  0  0
    9.7074   -6.1825   18.2829 C   0  0  0  0  0  0  0  0  0  0  0  0
   11.3571   -2.6218   19.8488 O   0  0  0  0  0  0  0  0  0  0  0  0
    4.8755   -9.3596   15.4644 C   0  0  0  0  0  0  0  0  0  0  0  0
    5.6676   -8.4519   14.8590 C   0  0  0  0  0  0  0  0  0  0  0  0
    9.1217   -6.0644   16.0287 C   0  0  0  0  0  0  0  0  0  0  0  0
    1.9653  -12.7169   20.9468 C   0  0  0  0  0  0  0  0  0  0  0  0
    8.7697    1.1715   24.4973 C   0  0  0  0  0  0  0  0  0  0  0  0
    5.8666   -8.7260   17.7135 C   0  0  0  0  0  0  0  0  0  0  0  0
    0.6336  -11.7421   19.3325 N   0  0  0  0  0  0  0  0  0  0  0  0
    9.6418   -5.4492   17.1501 C   0  0  0  0  0  0  0  0  0  0  0  0
    3.8186   -9.9366   17.5652 C   0  0  0  0  0  0  0  0  0  0  0  0
    0.7374  -12.5138   20.4041 C   0  0  0  0  0  0  0  0  0  0  0  0
    2.6131   -9.9147   17.0355 C   0  0  0  0  0  0  0  0  0  0  0  0
    9.2698   -7.3550   18.2308 O   0  0  0  0  0  0  0  0  0  0  0  0
    1.6934  -11.1914   18.7532 C   0  0  0  0  0  0  0  0  0  0  0  0
    7.5297   -7.8088   16.0538 N   0  0  0  0  0  0  0  0  0  0  0  0
    4.0252  -10.6143   18.7033 He  0  0  0  0  0  0  0  0  0  0  0  0
  1  2  1  0
  1 17  1  0
  1 24  1  0
  2 19  3  0
  3 18  4  0
  4  7  4  0
  4 32  4  0
  5 10  4  0
  5 13  4  0
  6 14  2  0
  6 21  1  0
  6 33  1  0
  7  9  3  0
  7 23  4  0
  8 25  2  0
  9 13  4  0
 10 12  1  0
 10 27  4  0
 11 20  1  0
 11 25  1  0
 11 28  1  0
 13 19  1  0
 14 22  2  0
 14 33  1  0
 15 25  1  0
 15 33  1  0
 16 30  4  0
 16 32  4  0
 18 27  4  0
 18 31  1  0
 20 21  1  0
 20 22  3  0
 22 27  1  0
 23 29  4  0
 26 29  4  0
 26 32  4  0
 28 30  4  0
M  END
$$$$

 Created by Python create_sdf_string function

 34 36  0  0  0  0  0  0  0  0999 V2000
    9.4298   -0.0212   25.1621 N   0  0  0  0  0  0  0  0  0  0  0  0
    9.7506   -1.1342   24.1887 C   0  0  0  0  0  0  0  0  0  0  0  0
   10.1467   -5.9243   19.4079 C   0  0  0  0  0  0  0  0  0  0  0  0
    2.9762  -11.3181   19.3200 C   0  0  0  0  0  0  0  0  0  0  0  0
   10.5388   -3.3771   17.8904 C   0  0  0  0  0  0  0  0  0  0  0  0
    7.0398   -8.6848   15.0604 C   0  0  0  0  0  0  0  0  0  0  0  0
    3.0882  -12.1406   20.4329 C   0  0  0  0  0  0  0  0  0  0  0  0
    5.7865   -8.9111   18.9182 O   0  0  0  0  0  0  0  0  0  0  0  0
   10.6428   -4.7464   19.8336 C   0  0  0  0  0  0  0  0  0  0  0  0
    4.0165  -10.6066   18.7040 N   0  0  0  0  0  0  0  0  0  0  0  0
   10.0182   -4.1684   16.9960 C   0  0  0  0  0  0  0  0  0  0  0  0
    4.8734   -9.3063   16.9083 N   0  0  0  0  0  0  0  0  0  0  0  0
    9.8176   -3.7173   15.8269 O   0  0  0  0  0  0  0  0  0  0  0  0
   10.8152   -3.6264   19.1748 C   0  0  0  0  0  0  0  0  0  0  0  0
    8.5303   -7.0799   15.7841 C   0  0  0  0  0  0  0  0  0  0  0  0
    6.8763   -7.9607   17.2382 C   0  0  0  0  0  0  0  0  0  0  0  0
    1.5746  -10.4722   17.6427 C   0  0  0  0  0  0  0  0  0  0  0  0
    8.6927   -0.4863   26.3962 C   0  0  0  0  0  0  0  0  0  0  0  0
    9.6949   -6.1905   18.2749 C   0  0  0  0  0  0  0  0  0  0  0  0
   11.3373   -2.6315   19.8535 O   0  0  0  0  0  0  0  0  0  0  0  0
    4.8583   -9.3765   15.4580 C   0  0  0  0  0  0  0  0  0  0  0  0
    5.6581   -8.4527   14.8606 C   0  0  0  0  0  0  0  0  0  0  0  0
    9.1175   -6.0694   16.0099 C   0  0  0  0  0  0  0  0  0  0  0  0
    1.9878  -12.7175   20.9655 C   0  0  0  0  0  0  0  0  0  0  0  0
    8.7746    1.1650   24.4926 C   0  0  0  0  0  0  0  0  0  0  0  0
    5.8528   -8.7406   17.7256 C   0  0  0  0  0  0  0  0  0  0  0  0
    0.6391  -11.7814   19.3567 N   0  0  0  0  0  0  0  0  0  0  0  0
    9.6363   -5.4466   17.1480 C   0  0  0  0  0  0  0  0  0  0  0  0
    3.8447   -9.9387   17.5636 C   0  0  0  0  0  0  0  0  0  0  0  0
    0.7696  -12.5244   20.4233 C   0  0  0  0  0  0  0  0  0  0  0  0
    2.6181   -9.9024   17.0392 C   0  0  0  0  0  0  0  0  0  0  0  0
    9.2591   -7.3606   18.2357 O   0  0  0  0  0  0  0  0  0  0  0  0
    1.7040  -11.1991   18.7801 C   0  0  0  0  0  0  0  0  0  0  0  0
    7.5203   -7.7983   16.0516 N   0  0  0  0  0  0  0  0  0  0  0  0
  1  2  1  0
  1 18  1  0
  1 25  1  0
  3  9  4  0
  3 19  4  0
  4  7  4  0
  4 10  4  0
  4 33  4  0
  5 11  4  0
  5 14  4  0
  6 22  1  0
  6 34  1  0
  7 24  4  0
  8 26  2  0
  9 14  4  0
 10 29  4  0
 11 13  1  0
 11 28  4  0
 12 21  1  0
 12 26  1  0
 12 29  1  0
 14 20  1  0
 15 23  2  0
 15 34  1  0
 16 26  1  0
 16 34  1  0
 17 31  4  0
 17 33  4  0
 19 28  4  0
 19 32  1  0
 21 22  1  0
 23 28  1  0
 24 30  4  0
 27 30  4  0
 27 33  4  0
 29 31  4  0
M  END
$$$$

 Created by Python create_sdf_string function

 34 42  0  0  0  0  0  0  0  0999 V2000
    9.4325   -0.0142   25.1705 N   0  0  0  0  0  0  0  0  0  0  0  0
    9.7517   -1.1228   24.1925 C   0  0  0  0  0  0  0  0  0  0  0  0
   10.1416   -5.9329   19.4099 C   0  0  0  0  0  0  0  0  0  0  0  0
    2.9785  -11.3173   19.3083 C   0  0  0  0  0  0  0  0  0  0  0  0
   10.5243   -3.3669   17.9112 C   0  0  0  0  0  0  0  0  0  0  0  0
    7.0638   -8.6744   15.0594 C   0  0  0  0  0  0  0  0  0  0  0  0
    3.0752  -12.1451   20.4512 C   0  0  0  0  0  0  0  0  0  0  0  0
    5.7778   -8.8901   18.9103 O   0  0  0  0  0  0  0  0  0  0  0  0
   10.6479   -4.7486   19.8275 C   0  0  0  0  0  0  0  0  0  0  0  0
    4.0205  -10.6202   18.6963 N   0  0  0  0  0  0  0  0  0  0  0  0
   10.0080   -4.1834   17.0103 C   0  0  0  0  0  0  0  0  0  0  0  0
    4.8736   -9.3294   16.8972 N   0  0  0  0  0  0  0  0  0  0  0  0
    9.8132   -3.7213   15.8319 O   0  0  0  0  0  0  0  0  0  0  0  0
   10.8323   -3.6250   19.1820 C   0  0  0  0  0  0  0  0  0  0  0  0
    8.5288   -7.0907   15.7934 C   0  0  0  0  0  0  0  0  0  0  0  0
    6.8857   -7.9565   17.2271 C   0  0  0  0  0  0  0  0  0  0  0  0
    1.5719  -10.4752   17.6388 C   0  0  0  0  0  0  0  0  0  0  0  0
    8.7233   -0.4910   26.4090 C   0  0  0  0  0  0  0  0  0  0  0  0
    9.6970   -6.2178   18.2847 C   0  0  0  0  0  0  0  0  0  0  0  0
   11.3317   -2.6138   19.8446 O   0  0  0  0  0  0  0  0  0  0  0  0
    4.8579   -9.3833   15.4650 C   0  0  0  0  0  0  0  0  0  0  0  0
    5.6608   -8.4733   14.8545 C   0  0  0  0  0  0  0  0  0  0  0  0
    9.1168   -6.0720   16.0098 C   0  0  0  0  0  0  0  0  0  0  0  0
    2.0085  -12.7095   20.9658 C   0  0  0  0  0  0  0  0  0  0  0  0
    8.7626    1.1584   24.5016 C   0  0  0  0  0  0  0  0  0  0  0  0
    5.8665   -8.7475   17.7250 C   0  0  0  0  0  0  0  0  0  0  0  0
    0.6240  -11.7805   19.3449 N   0  0  0  0  0  0  0  0  0  0  0  0
    9.6405   -5.4595   17.1278 C   0  0  0  0  0  0  0  0  0  0  0  0
    3.8613   -9.9292   17.5756 C   0  0  0  0  0  0  0  0  0  0  0  0
    0.7632  -12.5320   20.4437 C   0  0  0  0  0  0  0  0  0  0  0  0
    2.6248   -9.8863   17.0262 C   0  0  0  0  0  0  0  0  0  0  0  0
    9.2461   -7.3688   18.2565 O   0  0  0  0  0  0  0  0  0  0  0  0
    1.7012  -11.2054   18.7892 C   0  0  0  0  0  0  0  0  0  0  0  0
    7.5307   -7.7959   16.0508 N   0  0  0  0  0  0  0  0  0  0  0  0
  1  2  1  0
  1 18  1  0
  1 21  4  0
  1 25  1  0
  2  4  3  0
  3  9  4  0
  3 19  4  0
  4  7  4  0
  4 10  4  0
  4 33  4  0
  5 11  4  0
  5 14  4  0
  6 22  1  0
  6 34  1  0
  7 24  4  0
  8 26  2  0
  9 11  2  0
  9 14  4  0
 10 29  4  0
 11 13  1  0
 11 26  1  0
 11 28  4  0
 12 21  1  0
 12 26  1  0
 12 29  1  0
 14 20  1  0
 15 23  2  0
 15 34  1  0
 16 26  1  0
 16 34  1  0
 17 31  4  0
 17 33  4  0
 19 28  4  0
 19 32  1  0
 21 22  1  0
 23 28  1  0
 24 29  4  0
 24 30  4  0
 26 27  3  0
 27 30  4  0
 27 33  4  0
 29 31  4  0
M  END
$$$$

 Created by Python create_sdf_string function

 34 36  0  0  0  0  0  0  0  0999 V2000
    9.4288   -0.0212   25.1575 N   0  0  0  0  0  0  0  0  0  0  0  0
    9.7513   -1.1214   24.1854 C   0  0  0  0  0  0  0  0  0  0  0  0
   10.1529   -5.9311   19.4055 C   0  0  0  0  0  0  0  0  0  0  0  0
    2.9743  -11.3174   19.3184 C   0  0  0  0  0  0  0  0  0  0  0  0
   10.5345   -3.3946   17.8966 C   0  0  0  0  0  0  0  0  0  0  0  0
    7.0394   -8.6797   15.0448 C   0  0  0  0  0  0  0  0  0  0  0  0
    3.1042  -12.1328   20.4335 C   0  0  0  0  0  0  0  0  0  0  0  0
    5.7785   -8.9096   18.9172 O   0  0  0  0  0  0  0  0  0  0  0  0
   10.6475   -4.7711   19.8367 C   0  0  0  0  0  0  0  0  0  0  0  0
    4.0214  -10.6007   18.7144 N   0  0  0  0  0  0  0  0  0  0  0  0
   10.0199   -4.1889   17.0113 C   0  0  0  0  0  0  0  0  0  0  0  0
    4.8854   -9.3221   16.9208 N   0  0  0  0  0  0  0  0  0  0  0  0
    9.8290   -3.7351   15.8426 O   0  0  0  0  0  0  0  0  0  0  0  0
   10.8146   -3.6452   19.1774 C   0  0  0  0  0  0  0  0  0  0  0  0
    8.5263   -7.0854   15.8009 C   0  0  0  0  0  0  0  0  0  0  0  0
    6.8728   -7.9752   17.2173 C   0  0  0  0  0  0  0  0  0  0  0  0
    1.5893  -10.4851   17.6464 C   0  0  0  0  0  0  0  0  0  0  0  0
    8.7254   -0.4953   26.4024 C   0  0  0  0  0  0  0  0  0  0  0  0
    9.6905   -6.2134   18.2804 C   0  0  0  0  0  0  0  0  0  0  0  0
   11.3238   -2.6310   19.8502 O   0  0  0  0  0  0  0  0  0  0  0  0
    4.8575   -9.3928   15.4712 C   0  0  0  0  0  0  0  0  0  0  0  0
    5.6459   -8.4755   14.8597 C   0  0  0  0  0  0  0  0  0  0  0  0
    9.1178   -6.0743   16.0095 C   0  0  0  0  0  0  0  0  0  0  0  0
    2.0203  -12.7145   20.9834 C   0  0  0  0  0  0  0  0  0  0  0  0
    8.7632    1.1571   24.4991 C   0  0  0  0  0  0  0  0  0  0  0  0
    5.8555   -8.7469   17.7222 C   0  0  0  0  0  0  0  0  0  0  0  0
    0.6374  -11.8090   19.3765 N   0  0  0  0  0  0  0  0  0  0  0  0
    9.6371   -5.4593   17.1506 C   0  0  0  0  0  0  0  0  0  0  0  0
    3.8609   -9.9445   17.5751 C   0  0  0  0  0  0  0  0  0  0  0  0
    0.7927  -12.5368   20.4507 C   0  0  0  0  0  0  0  0  0  0  0  0
    2.6211   -9.9111   17.0366 C   0  0  0  0  0  0  0  0  0  0  0  0
    9.2283   -7.3821   18.2411 O   0  0  0  0  0  0  0  0  0  0  0  0
    1.6990  -11.2138   18.7840 C   0  0  0  0  0  0  0  0  0  0  0  0
    7.5162   -7.7924   16.0338 N   0  0  0  0  0  0  0  0  0  0  0  0
  1  2  1  0
  1 18  1  0
  1 25  1  0
  3  9  4  0
  3 19  4  0
  4  7  4  0
  4 10  4  0
  4 33  4  0
  5 11  4  0
  5 14  4  0
  6 22  1  0
  6 34  1  0
  7 24  4  0
  8 26  2  0
  9 14  4  0
 10 29  4  0
 11 13  1  0
 11 28  4  0
 12 21  1  0
 12 26  1  0
 12 29  1  0
 14 20  1  0
 15 23  2  0
 15 34  1  0
 16 26  1  0
 16 34  1  0
 17 31  4  0
 17 33  4  0
 19 28  4  0
 19 32  1  0
 21 22  1  0
 23 28  1  0
 24 30  4  0
 27 30  4  0
 27 33  4  0
 29 31  4  0
M  END
$$$$

 Created by Python create_sdf_string function

 34 37  0  0  0  0  0  0  0  0999 V2000
    9.4157   -0.0217   25.1669 N   0  0  0  0  0  0  0  0  0  0  0  0
    9.7468   -1.1192   24.1953 C   0  0  0  0  0  0  0  0  0  0  0  0
   10.1524   -5.9095   19.4197 C   0  0  0  0  0  0  0  0  0  0  0  0
    2.9821  -11.3107   19.3314 C   0  0  0  0  0  0  0  0  0  0  0  0
   10.5456   -3.3971   17.8916 C   0  0  0  0  0  0  0  0  0  0  0  0
    7.0503   -8.6892   15.0510 C   0  0  0  0  0  0  0  0  0  0  0  0
    3.1071  -12.1362   20.4339 C   0  0  0  0  0  0  0  0  0  0  0  0
    5.7746   -8.9138   18.9184 O   0  0  0  0  0  0  0  0  0  0  0  0
   10.6422   -4.7768   19.8364 C   0  0  0  0  0  0  0  0  0  0  0  0
    4.0255  -10.6009   18.7142 N   0  0  0  0  0  0  0  0  0  0  0  0
   10.0259   -4.1770   17.0142 C   0  0  0  0  0  0  0  0  0  0  0  0
    4.8947   -9.3267   16.9149 N   0  0  0  0  0  0  0  0  0  0  0  0
    9.8449   -3.7353   15.8372 O   0  0  0  0  0  0  0  0  0  0  0  0
   10.8016   -3.6509   19.1761 C   0  0  0  0  0  0  0  0  0  0  0  0
    8.5214   -7.0848   15.8051 C   0  0  0  0  0  0  0  0  0  0  0  0
    6.8660   -7.9753   17.2155 C   0  0  0  0  0  0  0  0  0  0  0  0
    1.5901  -10.4763   17.6565 C   0  0  0  0  0  0  0  0  0  0  0  0
    8.7265   -0.5014   26.4014 C   0  0  0  0  0  0  0  0  0  0  0  0
    9.6817   -6.2210   18.2668 C   0  0  0  0  0  0  0  0  0  0  0  0
   11.3324   -2.6312   19.8511 O   0  0  0  0  0  0  0  0  0  0  0  0
    4.8607   -9.4010   15.4816 C   0  0  0  0  0  0  0  0  0  0  0  0
    5.6518   -8.4698   14.8648 C   0  0  0  0  0  0  0  0  0  0  0  0
    9.1209   -6.0738   16.0146 C   0  0  0  0  0  0  0  0  0  0  0  0
    2.0328  -12.7198   20.9859 C   0  0  0  0  0  0  0  0  0  0  0  0
    8.7611    1.1628   24.4923 C   0  0  0  0  0  0  0  0  0  0  0  0
    5.8504   -8.7452   17.7270 C   0  0  0  0  0  0  0  0  0  0  0  0
    0.6360  -11.8122   19.3779 N   0  0  0  0  0  0  0  0  0  0  0  0
    9.6382   -5.4559   17.1608 C   0  0  0  0  0  0  0  0  0  0  0  0
    3.8513   -9.9458   17.5901 C   0  0  0  0  0  0  0  0  0  0  0  0
    0.7925  -12.5274   20.4438 C   0  0  0  0  0  0  0  0  0  0  0  0
    2.6342   -9.9159   17.0253 C   0  0  0  0  0  0  0  0  0  0  0  0
    9.2274   -7.3943   18.2482 O   0  0  0  0  0  0  0  0  0  0  0  0
    1.6857  -11.2239   18.7921 C   0  0  0  0  0  0  0  0  0  0  0  0
    7.5257   -7.7869   16.0371 N   0  0  0  0  0  0  0  0  0  0  0  0
  1  2  1  0
  1 18  1  0
  1 25  1  0
  3  9  4  0
  3 19  4  0
  4  7  4  0
  4 10  4  0
  4 33  4  0
  5 11  4  0
  5 14  4  0
  6 22  1  0
  6 34  1  0
  7 24  4  0
  8 26  2  0
  9 14  4  0
 10 18  4  0
 10 29  4  0
 11 13  1  0
 11 28  4  0
 12 21  1  0
 12 26  1  0
 12 29  1  0
 14 20  1  0
 15 23  2  0
 15 34  1  0
 16 26  1  0
 16 34  1  0
 17 31  4  0
 17 33  4  0
 19 28  4  0
 19 32  1  0
 21 22  1  0
 23 28  1  0
 24 30  4  0
 27 30  4  0
 27 33  4  0
 29 31  4  0
M  END
$$$$

 Created by Python create_sdf_string function

 34 36  0  0  0  0  0  0  0  0999 V2000
    9.4103   -0.0293   25.1492 N   0  0  0  0  0  0  0  0  0  0  0  0
    9.7484   -1.1269   24.1782 C   0  0  0  0  0  0  0  0  0  0  0  0
   10.1422   -5.9499   19.4105 C   0  0  0  0  0  0  0  0  0  0  0  0
    2.9806  -11.3156   19.3319 C   0  0  0  0  0  0  0  0  0  0  0  0
   10.5482   -3.4084   17.8969 C   0  0  0  0  0  0  0  0  0  0  0  0
    7.0278   -8.6791   15.0532 C   0  0  0  0  0  0  0  0  0  0  0  0
    3.1167  -12.1305   20.4407 C   0  0  0  0  0  0  0  0  0  0  0  0
    5.7690   -8.9319   18.9262 O   0  0  0  0  0  0  0  0  0  0  0  0
   10.6345   -4.7882   19.8344 C   0  0  0  0  0  0  0  0  0  0  0  0
    4.0226  -10.5880   18.7368 N   0  0  0  0  0  0  0  0  0  0  0  0
   10.0314   -4.2036   17.0112 C   0  0  0  0  0  0  0  0  0  0  0  0
    4.8833   -9.3233   16.9239 N   0  0  0  0  0  0  0  0  0  0  0  0
    9.8545   -3.7557   15.8478 O   0  0  0  0  0  0  0  0  0  0  0  0
   10.8094   -3.6578   19.1765 C   0  0  0  0  0  0  0  0  0  0  0  0
    8.5205   -7.0889   15.8107 C   0  0  0  0  0  0  0  0  0  0  0  0
    6.8546   -7.9895   17.2159 C   0  0  0  0  0  0  0  0  0  0  0  0
    1.5989  -10.4994   17.6580 C   0  0  0  0  0  0  0  0  0  0  0  0
    8.7312   -0.5016   26.3921 C   0  0  0  0  0  0  0  0  0  0  0  0
    9.6831   -6.2210   18.2877 C   0  0  0  0  0  0  0  0  0  0  0  0
   11.3174   -2.6498   19.8542 O   0  0  0  0  0  0  0  0  0  0  0  0
    4.8548   -9.4151   15.4867 C   0  0  0  0  0  0  0  0  0  0  0  0
    5.6330   -8.4825   14.8836 C   0  0  0  0  0  0  0  0  0  0  0  0
    9.1197   -6.0717   16.0148 C   0  0  0  0  0  0  0  0  0  0  0  0
    2.0459  -12.7191   20.9954 C   0  0  0  0  0  0  0  0  0  0  0  0
    8.7636    1.1558   24.4916 C   0  0  0  0  0  0  0  0  0  0  0  0
    5.8481   -8.7567   17.7311 C   0  0  0  0  0  0  0  0  0  0  0  0
    0.6577  -11.8287   19.3980 N   0  0  0  0  0  0  0  0  0  0  0  0
    9.6414   -5.4642   17.1597 C   0  0  0  0  0  0  0  0  0  0  0  0
    3.8667   -9.9471   17.5888 C   0  0  0  0  0  0  0  0  0  0  0  0
    0.8212  -12.5497   20.4703 C   0  0  0  0  0  0  0  0  0  0  0  0
    2.6270   -9.9324   17.0429 C   0  0  0  0  0  0  0  0  0  0  0  0
    9.2062   -7.3853   18.2339 O   0  0  0  0  0  0  0  0  0  0  0  0
    1.7078  -11.2261   18.8021 C   0  0  0  0  0  0  0  0  0  0  0  0
    7.5038   -7.7867   16.0345 N   0  0  0  0  0  0  0  0  0  0  0  0
  1  2  1  0
  1 18  1  0
  1 25  1  0
  3  9  4  0
  3 19  4  0
  4  7  4  0
  4 10  4  0
  4 33  4  0
  5 11  4  0
  5 14  4  0
  6 22  1  0
  6 34  1  0
  7 24  4  0
  8 26  2  0
  9 14  4  0
 10 29  4  0
 11 13  1  0
 11 28  4  0
 12 21  1  0
 12 26  1  0
 12 29  1  0
 14 20  1  0
 15 23  2  0
 15 34  1  0
 16 26  1  0
 16 34  1  0
 17 31  4  0
 17 33  4  0
 19 28  4  0
 19 32  1  0
 21 22  1  0
 23 28  1  0
 24 30  4  0
 27 30  4  0
 27 33  4  0
 29 31  4  0
M  END
$$$$

 Created by Python create_sdf_string function

 34 36  0  0  0  0  0  0  0  0999 V2000
    9.4048   -0.0270   25.1469 N   0  0  0  0  0  0  0  0  0  0  0  0
    9.7515   -1.1245   24.1774 C   0  0  0  0  0  0  0  0  0  0  0  0
   10.1326   -5.9479   19.4078 C   0  0  0  0  0  0  0  0  0  0  0  0
    2.9771  -11.3150   19.3365 C   0  0  0  0  0  0  0  0  0  0  0  0
   10.5514   -3.4105   17.8955 C   0  0  0  0  0  0  0  0  0  0  0  0
    7.0282   -8.6837   15.0513 C   0  0  0  0  0  0  0  0  0  0  0  0
    3.1172  -12.1345   20.4410 C   0  0  0  0  0  0  0  0  0  0  0  0
    5.7672   -8.9304   18.9274 O   0  0  0  0  0  0  0  0  0  0  0  0
   10.6400   -4.7908   19.8331 C   0  0  0  0  0  0  0  0  0  0  0  0
    4.0199  -10.5856   18.7403 N   0  0  0  0  0  0  0  0  0  0  0  0
   10.0359   -4.2013   17.0114 C   0  0  0  0  0  0  0  0  0  0  0  0
    4.8897   -9.3221   16.9299 N   0  0  0  0  0  0  0  0  0  0  0  0
    9.8577   -3.7588   15.8482 O   0  0  0  0  0  0  0  0  0  0  0  0
   10.8079   -3.6622   19.1774 C   0  0  0  0  0  0  0  0  0  0  0  0
    8.5162   -7.0882   15.8128 C   0  0  0  0  0  0  0  0  0  0  0  0
    6.8604   -7.9889   17.2160 C   0  0  0  0  0  0  0  0  0  0  0  0
    1.5912  -10.5005   17.6517 C   0  0  0  0  0  0  0  0  0  0  0  0
    8.7296   -0.5014   26.3939 C   0  0  0  0  0  0  0  0  0  0  0  0
    9.6927   -6.2216   18.2891 C   0  0  0  0  0  0  0  0  0  0  0  0
   11.3186   -2.6433   19.8520 O   0  0  0  0  0  0  0  0  0  0  0  0
    4.8560   -9.4083   15.4821 C   0  0  0  0  0  0  0  0  0  0  0  0
    5.6357   -8.4797   14.8811 C   0  0  0  0  0  0  0  0  0  0  0  0
    9.1219   -6.0750   16.0165 C   0  0  0  0  0  0  0  0  0  0  0  0
    2.0392  -12.7176   20.9965 C   0  0  0  0  0  0  0  0  0  0  0  0
    8.7594    1.1506   24.4822 C   0  0  0  0  0  0  0  0  0  0  0  0
    5.8493   -8.7574   17.7343 C   0  0  0  0  0  0  0  0  0  0  0  0
    0.6541  -11.8276   19.3962 N   0  0  0  0  0  0  0  0  0  0  0  0
    9.6468   -5.4628   17.1581 C   0  0  0  0  0  0  0  0  0  0  0  0
    3.8620   -9.9479   17.5868 C   0  0  0  0  0  0  0  0  0  0  0  0
    0.8164  -12.5485   20.4761 C   0  0  0  0  0  0  0  0  0  0  0  0
    2.6272   -9.9324   17.0438 C   0  0  0  0  0  0  0  0  0  0  0  0
    9.2093   -7.3904   18.2420 I   0  0  0  0  0  0  0  0  0  0  0  0
    1.7066  -11.2224   18.7937 C   0  0  0  0  0  0  0  0  0  0  0  0
    7.5049   -7.7888   16.0337 N   0  0  0  0  0  0  0  0  0  0  0  0
  1  2  1  0
  1 18  1  0
  1 25  1  0
  3  9  4  0
  3 19  4  0
  4  7  4  0
  4 10  4  0
  4 33  4  0
  5 11  4  0
  5 14  4  0
  6 22  1  0
  6 34  1  0
  7 24  4  0
  8 26  2  0
  9 14  4  0
 10 29  4  0
 11 13  1  0
 11 28  4  0
 12 21  1  0
 12 26  1  0
 12 29  1  0
 14 20  1  0
 15 23  2  0
 15 34  1  0
 16 26  1  0
 16 34  1  0
 17 31  4  0
 17 33  4  0
 19 28  4  0
 19 32  1  0
 21 22  1  0
 23 28  1  0
 24 30  4  0
 27 30  4  0
 27 33  4  0
 29 31  4  0
M  END
$$$$

 Created by Python create_sdf_string function

 34 36  0  0  0  0  0  0  0  0999 V2000
    9.3937   -0.0402   25.1272 N   0  0  0  0  0  0  0  0  0  0  0  0
    9.7526   -1.1317   24.1632 C   0  0  0  0  0  0  0  0  0  0  0  0
   10.1512   -5.9461   19.4231 C   0  0  0  0  0  0  0  0  0  0  0  0
    2.9868  -11.3155   19.3446 C   0  0  0  0  0  0  0  0  0  0  0  0
   10.5526   -3.4339   17.8961 C   0  0  0  0  0  0  0  0  0  0  0  0
    7.0109   -8.6710   15.0501 C   0  0  0  0  0  0  0  0  0  0  0  0
    3.1260  -12.1297   20.4551 C   0  0  0  0  0  0  0  0  0  0  0  0
    5.7656   -8.9462   18.9343 O   0  0  0  0  0  0  0  0  0  0  0  0
   10.6343   -4.8040   19.8322 C   0  0  0  0  0  0  0  0  0  0  0  0
    4.0261  -10.5769   18.7513 N   0  0  0  0  0  0  0  0  0  0  0  0
   10.0428   -4.2130   17.0085 C   0  0  0  0  0  0  0  0  0  0  0  0
    4.8777   -9.3307   16.9298 N   0  0  0  0  0  0  0  0  0  0  0  0
    9.8683   -3.7783   15.8491 O   0  0  0  0  0  0  0  0  0  0  0  0
   10.8082   -3.6763   19.1752 C   0  0  0  0  0  0  0  0  0  0  0  0
    8.5059   -7.0933   15.8135 C   0  0  0  0  0  0  0  0  0  0  0  0
    6.8456   -7.9966   17.2095 C   0  0  0  0  0  0  0  0  0  0  0  0
    1.6030  -10.5195   17.6599 C   0  0  0  0  0  0  0  0  0  0  0  0
    8.7330   -0.5048   26.3862 C   0  0  0  0  0  0  0  0  0  0  0  0
    9.6798   -6.2169   18.2818 C   0  0  0  0  0  0  0  0  0  0  0  0
   11.3096   -2.6589   19.8584 O   0  0  0  0  0  0  0  0  0  0  0  0
    4.8457   -9.4256   15.4893 C   0  0  0  0  0  0  0  0  0  0  0  0
    5.6132   -8.4843   14.8901 C   0  0  0  0  0  0  0  0  0  0  0  0
    9.1160   -6.0885   16.0149 C   0  0  0  0  0  0  0  0  0  0  0  0
    2.0636  -12.7214   21.0122 C   0  0  0  0  0  0  0  0  0  0  0  0
    8.7608    1.1486   24.4806 C   0  0  0  0  0  0  0  0  0  0  0  0
    5.8431   -8.7671   17.7368 C   0  0  0  0  0  0  0  0  0  0  0  0
    0.6697  -11.8437   19.4109 N   0  0  0  0  0  0  0  0  0  0  0  0
    9.6398   -5.4743   17.1468 C   0  0  0  0  0  0  0  0  0  0  0  0
    3.8667   -9.9499   17.5972 C   0  0  0  0  0  0  0  0  0  0  0  0
    0.8373  -12.5606   20.4874 C   0  0  0  0  0  0  0  0  0  0  0  0
    2.6285   -9.9481   17.0504 C   0  0  0  0  0  0  0  0  0  0  0  0
    9.1908   -7.4053   18.2407 O   0  0  0  0  0  0  0  0  0  0  0  0
    1.7156  -11.2372   18.8090 C   0  0  0  0  0  0  0  0  0  0  0  0
    7.4869   -7.7864   16.0350 N   0  0  0  0  0  0  0  0  0  0  0  0
  1  2  1  0
  1 18  1  0
  1 25  1  0
  3  9  4  0
  3 19  4  0
  4  7  4  0
  4 10  4  0
  4 33  4  0
  5 11  4  0
  5 14  4  0
  6 22  1  0
  6 34  1  0
  7 24  4  0
  8 26  2  0
  9 14  4  0
 10 29  4  0
 11 13  1  0
 11 28  4  0
 12 21  1  0
 12 26  1  0
 12 29  1  0
 14 20  1  0
 15 23  2  0
 15 34  1  0
 16 26  1  0
 16 34  1  0
 17 31  4  0
 17 33  4  0
 19 28  4  0
 19 32  1  0
 21 22  1  0
 23 28  1  0
 24 30  4  0
 27 30  4  0
 27 33  4  0
 29 31  4  0
M  END
$$$$

 Created by Python create_sdf_string function

 34 36  0  0  0  0  0  0  0  0999 V2000
    9.3937   -0.0402   25.1272 N   0  0  0  0  0  0  0  0  0  0  0  0
    9.7526   -1.1317   24.1632 C   0  0  0  0  0  0  0  0  0  0  0  0
   10.1512   -5.9461   19.4231 C   0  0  0  0  0  0  0  0  0  0  0  0
    2.9868  -11.3155   19.3446 C   0  0  0  0  0  0  0  0  0  0  0  0
   10.5526   -3.4339   17.8961 C   0  0  0  0  0  0  0  0  0  0  0  0
    7.0109   -8.6710   15.0501 C   0  0  0  0  0  0  0  0  0  0  0  0
    3.1260  -12.1297   20.4551 C   0  0  0  0  0  0  0  0  0  0  0  0
    5.7656   -8.9462   18.9343 O   0  0  0  0  0  0  0  0  0  0  0  0
   10.6343   -4.8040   19.8322 C   0  0  0  0  0  0  0  0  0  0  0  0
    4.0261  -10.5769   18.7513 N   0  0  0  0  0  0  0  0  0  0  0  0
   10.0428   -4.2130   17.0085 C   0  0  0  0  0  0  0  0  0  0  0  0
    4.8777   -9.3307   16.9298 N   0  0  0  0  0  0  0  0  0  0  0  0
    9.8683   -3.7783   15.8491 O   0  0  0  0  0  0  0  0  0  0  0  0
   10.8082   -3.6763   19.1752 C   0  0  0  0  0  0  0  0  0  0  0  0
    8.5059   -7.0933   15.8135 C   0  0  0  0  0  0  0  0  0  0  0  0
    6.8456   -7.9966   17.2095 C   0  0  0  0  0  0  0  0  0  0  0  0
    1.6030  -10.5195   17.6599 C   0  0  0  0  0  0  0  0  0  0  0  0
    8.7330   -0.5048   26.3862 C   0  0  0  0  0  0  0  0  0  0  0  0
    9.6798   -6.2169   18.2818 C   0  0  0  0  0  0  0  0  0  0  0  0
   11.3096   -2.6589   19.8584 O   0  0  0  0  0  0  0  0  0  0  0  0
    4.8457   -9.4256   15.4893 C   0  0  0  0  0  0  0  0  0  0  0  0
    5.6132   -8.4843   14.8901 C   0  0  0  0  0  0  0  0  0  0  0  0
    9.1160   -6.0885   16.0149 C   0  0  0  0  0  0  0  0  0  0  0  0
    2.0636  -12.7214   21.0122 C   0  0  0  0  0  0  0  0  0  0  0  0
    8.7608    1.1486   24.4806 C   0  0  0  0  0  0  0  0  0  0  0  0
    5.8431   -8.7671   17.7368 C   0  0  0  0  0  0  0  0  0  0  0  0
    0.6697  -11.8437   19.4109 N   0  0  0  0  0  0  0  0  0  0  0  0
    9.6398   -5.4743   17.1468 C   0  0  0  0  0  0  0  0  0  0  0  0
    3.8667   -9.9499   17.5972 C   0  0  0  0  0  0  0  0  0  0  0  0
    0.8373  -12.5606   20.4874 C   0  0  0  0  0  0  0  0  0  0  0  0
    2.6285   -9.9481   17.0504 C   0  0  0  0  0  0  0  0  0  0  0  0
    9.1908   -7.4053   18.2407 O   0  0  0  0  0  0  0  0  0  0  0  0
    1.7156  -11.2372   18.8090 C   0  0  0  0  0  0  0  0  0  0  0  0
    7.4869   -7.7864   16.0350 N   0  0  0  0  0  0  0  0  0  0  0  0
  1  2  1  0
  1 18  1  0
  1 25  1  0
  3  9  4  0
  3 19  4  0
  4  7  4  0
  4 10  4  0
  4 33  4  0
  5 11  4  0
  5 14  4  0
  6 22  1  0
  6 34  1  0
  7 24  4  0
  8 26  2  0
  9 14  4  0
 10 29  4  0
 11 13  1  0
 11 28  4  0
 12 21  1  0
 12 26  1  0
 12 29  1  0
 14 20  1  0
 15 23  2  0
 15 34  1  0
 16 26  1  0
 16 34  1  0
 17 31  4  0
 17 33  4  0
 19 28  4  0
 19 32  1  0
 21 22  1  0
 23 28  1  0
 24 30  4  0
 27 30  4  0
 27 33  4  0
 29 31  4  0
M  END
$$$$

 Created by Python create_sdf_string function

 34 45  0  0  0  0  0  0  0  0999 V2000
    8.3012   -9.0437   18.0057 F   0  0  0  0  0  0  0  0  0  0  0  0
    8.3881   -9.5956   17.2099 F   0  0  0  0  0  0  0  0  0  0  0  0
    6.9250   -7.6477   17.0666 S   0  0  0  0  0  0  0  0  0  0  0  0
    6.9264   -8.1460   18.6348 C   0  0  0  0  0  0  0  0  0  0  0  0
    7.1270   -9.0063   18.3913 N   0  0  0  0  0  0  0  0  0  0  0  0
    9.9461   -7.9282   18.0561 O   0  0  0  0  0  0  0  0  0  0  0  0
    7.8638   -9.5261   17.5250 N   0  0  0  0  0  0  0  0  0  0  0  0
    7.0690  -10.3616   17.5145 Cl  0  0  0  0  0  0  0  0  0  0  0  0
    7.2339   -9.7360   16.5392 P   0  0  0  0  0  0  0  0  0  0  0  0
    8.7326   -6.9825   16.4003 Se  0  0  0  0  0  0  0  0  0  0  0  0
    7.0768   -7.4810   16.9068 Cl  0  0  0  0  0  0  0  0  0  0  0  0
    8.0303   -7.8039   15.2227 Cl  0  0  0  0  0  0  0  0  0  0  0  0
    7.2108  -10.1816   16.4658 F   0  0  0  0  0  0  0  0  0  0  0  0
    5.7310   -8.3798   15.5493 Cl  0  0  0  0  0  0  0  0  0  0  0  0
    6.4280   -8.4696   19.3241 N   0  0  0  0  0  0  0  0  0  0  0  0
    8.3846   -7.8011   17.4590 C   0  0  0  0  0  0  0  0  0  0  0  0
    8.1103   -7.7982   17.1231 He  0  0  0  0  0  0  0  0  0  0  0  0
    8.1547   -8.9089   17.7659 He  0  0  0  0  0  0  0  0  0  0  0  0
    7.9753   -6.8161   16.9288 He  0  0  0  0  0  0  0  0  0  0  0  0
    7.0025   -8.9079   15.3443 He  0  0  0  0  0  0  0  0  0  0  0  0
    6.4380   -8.8706   15.4551 He  0  0  0  0  0  0  0  0  0  0  0  0
    6.6007   -7.5056   20.1911 He  0  0  0  0  0  0  0  0  0  0  0  0
    8.3259   -9.1758   17.8916 He  0  0  0  0  0  0  0  0  0  0  0  0
    7.4933   -7.8279   17.6718 He  0  0  0  0  0  0  0  0  0  0  0  0
    9.1679   -6.7287   18.4731 He  0  0  0  0  0  0  0  0  0  0  0  0
    6.5686   -9.1285   17.9160 He  0  0  0  0  0  0  0  0  0  0  0  0
    6.5047   -6.8801   15.4382 He  0  0  0  0  0  0  0  0  0  0  0  0
    7.9561   -9.1818   16.8961 He  0  0  0  0  0  0  0  0  0  0  0  0
    6.9821   -7.5868   17.6934 He  0  0  0  0  0  0  0  0  0  0  0  0
    8.8061   -8.0571   17.0114 He  0  0  0  0  0  0  0  0  0  0  0  0
    8.5201   -8.7655   18.3851 He  0  0  0  0  0  0  0  0  0  0  0  0
    8.8961   -7.7305   16.9269 He  0  0  0  0  0  0  0  0  0  0  0  0
    8.5951   -8.8656   14.7610 He  0  0  0  0  0  0  0  0  0  0  0  0
    9.1515   -6.3481   15.0692 He  0  0  0  0  0  0  0  0  0  0  0  0
  1  9  4  0
  1 14  4  0
  1 15  2  0
  2  4  3  0
  2  6  1  0
  2  7  4  0
  2 10  3  0
  2 13  1  0
  3  4  4  0
  3  6  3  0
  3 13  4  0
  3 14  1  0
  3 16  1  0
  4  6  1  0
  4  7  3  0
  4 10  1  0
  4 14  3  0
  5  6  2  0
  5 10  3  0
  6  9  3  0
  6 12  1  0
  6 13  3  0
  7  8  4  0
  7  9  1  0
  7 10  3  0
  7 12  3  0
  8  9  1  0
  8 10  3  0
  8 11  2  0
  8 12  2  0
  8 13  1  0
  8 14  3  0
  8 16  4  0
  9 11  1  0
  9 13  4  0
  9 16  2  0
 10 15  3  0
 11 12  2  0
 11 13  1  0
 11 14  2  0
 11 16  1  0
 12 15  1  0
 13 15  2  0
 13 16  2  0
 14 16  3  0
M  END
$$$$

 Created by Python create_sdf_string function

 34  1  0  0  0  0  0  0  0  0999 V2000
    8.3834   -6.7494   17.1252 F   0  0  0  0  0  0  0  0  0  0  0  0
    8.4619   -8.3885   17.9245 F   0  0  0  0  0  0  0  0  0  0  0  0
    8.4441   -5.6041   16.7127 F   0  0  0  0  0  0  0  0  0  0  0  0
    6.7206   -8.8764   15.3255 F   0  0  0  0  0  0  0  0  0  0  0  0
    5.5922   -8.6918   15.4695 F   0  0  0  0  0  0  0  0  0  0  0  0
    6.2930   -7.6470   19.4688 F   0  0  0  0  0  0  0  0  0  0  0  0
    8.7493   -8.7837   18.0812 F   0  0  0  0  0  0  0  0  0  0  0  0
    8.7587   -8.5392   18.4017 F   0  0  0  0  0  0  0  0  0  0  0  0
    8.7014   -9.3009   17.1733 F   0  0  0  0  0  0  0  0  0  0  0  0
    6.0431   -7.2595   16.9955 F   0  0  0  0  0  0  0  0  0  0  0  0
    6.4116   -7.8102   18.7372 F   0  0  0  0  0  0  0  0  0  0  0  0
    6.5530   -8.8812   18.6852 F   0  0  0  0  0  0  0  0  0  0  0  0
    7.4366   -6.9177   17.8321 F   0  0  0  0  0  0  0  0  0  0  0  0
   10.2516   -7.2556   18.4509 F   0  0  0  0  0  0  0  0  0  0  0  0
    9.6824   -5.7827   18.7514 F   0  0  0  0  0  0  0  0  0  0  0  0
    5.4387   -9.2525   17.9747 F   0  0  0  0  0  0  0  0  0  0  0  0
    6.3335   -6.5673   15.4756 F   0  0  0  0  0  0  0  0  0  0  0  0
    7.9499   -8.9243   16.5617 F   0  0  0  0  0  0  0  0  0  0  0  0
    6.4221   -7.1408   17.8564 F   0  0  0  0  0  0  0  0  0  0  0  0
    7.5316   -9.4542   17.4208 F   0  0  0  0  0  0  0  0  0  0  0  0
    5.9564  -10.5746   17.2090 F   0  0  0  0  0  0  0  0  0  0  0  0
    6.5219   -9.9173   16.2265 F   0  0  0  0  0  0  0  0  0  0  0  0
    9.2580   -7.3330   17.1753 F   0  0  0  0  0  0  0  0  0  0  0  0
    9.1341   -8.1906   18.8691 F   0  0  0  0  0  0  0  0  0  0  0  0
    9.4105   -4.9981   16.5237 F   0  0  0  0  0  0  0  0  0  0  0  0
    9.5716   -6.2903   17.1492 F   0  0  0  0  0  0  0  0  0  0  0  0
    6.7074   -6.7343   16.6435 F   0  0  0  0  0  0  0  0  0  0  0  0
    8.0492   -7.4074   15.2839 F   0  0  0  0  0  0  0  0  0  0  0  0
    8.4149   -8.4556   15.1558 F   0  0  0  0  0  0  0  0  0  0  0  0
    6.5843  -10.5232   16.0740 F   0  0  0  0  0  0  0  0  0  0  0  0
    5.0740   -8.1485   15.8248 F   0  0  0  0  0  0  0  0  0  0  0  0
    9.3408   -5.2831   15.8942 F   0  0  0  0  0  0  0  0  0  0  0  0
    6.2427   -8.3650   19.0333 F   0  0  0  0  0  0  0  0  0  0  0  0
    8.9263   -6.5853   17.8555 F   0  0  0  0  0  0  0  0  0  0  0  0
  5 31  1  0
M  END
$$$$

 Created by Python create_sdf_string function

 34 46  0  0  0  0  0  0  0  0999 V2000
    8.9711   -6.3509   16.2589 F   0  0  0  0  0  0  0  0  0  0  0  0
    7.2738   -6.1888   17.2352 F   0  0  0  0  0  0  0  0  0  0  0  0
    9.1650   -8.2476   20.0671 N   0  0  0  0  0  0  0  0  0  0  0  0
    7.2024   -6.3658   17.0683 O   0  0  0  0  0  0  0  0  0  0  0  0
   10.4504   -6.2559   20.4144 P   0  0  0  0  0  0  0  0  0  0  0  0
    6.4453   -7.5254   16.0915 Br  0  0  0  0  0  0  0  0  0  0  0  0
    8.5188   -8.4558   16.5901 Cl  0  0  0  0  0  0  0  0  0  0  0  0
    6.6939   -7.1268   18.7452 C   0  0  0  0  0  0  0  0  0  0  0  0
    7.8642   -8.4315   14.9735 F   0  0  0  0  0  0  0  0  0  0  0  0
    7.6748   -6.5832   18.5311 I   0  0  0  0  0  0  0  0  0  0  0  0
    8.7403   -8.2168   18.0498 C   0  0  0  0  0  0  0  0  0  0  0  0
   11.5481   -5.7066   15.9946 O   0  0  0  0  0  0  0  0  0  0  0  0
   10.3313   -7.4153   14.6272 C   0  0  0  0  0  0  0  0  0  0  0  0
    8.1552   -7.6607   14.2149 F   0  0  0  0  0  0  0  0  0  0  0  0
    4.2711   -7.9043   16.7655 F   0  0  0  0  0  0  0  0  0  0  0  0
    6.7184   -9.3264   18.2865 I   0  0  0  0  0  0  0  0  0  0  0  0
    8.9929   -7.2300   19.7894 O   0  0  0  0  0  0  0  0  0  0  0  0
    8.4465   -8.4411   17.8547 He  0  0  0  0  0  0  0  0  0  0  0  0
    6.9694   -5.5573   16.6141 He  0  0  0  0  0  0  0  0  0  0  0  0
    6.0612  -10.5732   15.8299 He  0  0  0  0  0  0  0  0  0  0  0  0
    6.3573   -8.7747   14.8607 He  0  0  0  0  0  0  0  0  0  0  0  0
    5.7352   -7.1932   18.7925 He  0  0  0  0  0  0  0  0  0  0  0  0
    7.6219   -7.6689   16.2092 He  0  0  0  0  0  0  0  0  0  0  0  0
    6.1408   -7.1206   16.0123 He  0  0  0  0  0  0  0  0  0  0  0  0
    6.6868   -6.6499   17.5089 He  0  0  0  0  0  0  0  0  0  0  0  0
    5.7206   -9.3090   15.7005 He  0  0  0  0  0  0  0  0  0  0  0  0
    7.8560   -6.8263   18.1840 He  0  0  0  0  0  0  0  0  0  0  0  0
    4.2473   -9.4071   17.5145 He  0  0  0  0  0  0  0  0  0  0  0  0
    6.0420  -11.5903   17.1812 He  0  0  0  0  0  0  0  0  0  0  0  0
    5.5811   -9.6790   15.9377 He  0  0  0  0  0  0  0  0  0  0  0  0
    8.8562   -6.1275   16.4370 He  0  0  0  0  0  0  0  0  0  0  0  0
    7.2275   -7.4724   17.7916 He  0  0  0  0  0  0  0  0  0  0  0  0
    6.2092  -12.2722   14.8503 He  0  0  0  0  0  0  0  0  0  0  0  0
   11.1387   -6.0254   16.0349 He  0  0  0  0  0  0  0  0  0  0  0  0
  1 10  4  0
  1 11  2  0
  1 13  1  0
  2  4  4  0
  2  8  3  0
  2 10  4  0
  2 13  2  0
  2 15  4  0
  2 16  3  0
  3  5  3  0
  3  7  3  0
  3 12  2  0
  3 14  2  0
  4  5  1  0
  4  8  1  0
  4 12  2  0
  4 15  3  0
  5  6  1  0
  5  7  2  0
  5 10  2  0
  5 14  3  0
  5 15  2  0
  5 16  2  0
  5 17  2  0
  6  8  4  0
  6 11  1  0
  6 13  2  0
  6 15  1  0
  7 12  4  0
  7 16  4  0
  7 17  3  0
  8 17  2  0
  9 10  2  0
  9 12  2  0
  9 14  1  0
  9 15  1  0
 11 12  4  0
 11 13  3  0
 11 14  2  0
 11 15  4  0
 12 17  4  0
 13 15  1  0
 14 16  2  0
 15 16  3  0
 15 17  1  0
 16 17  1  0
M  END
$$$$

 Created by Python create_sdf_string function

 34  0  0  0  0  0  0  0  0  0999 V2000
    9.3504   -5.5592   16.3619 F   0  0  0  0  0  0  0  0  0  0  0  0
    8.6235   -8.1231   17.7374 F   0  0  0  0  0  0  0  0  0  0  0  0
    7.7073   -5.5245   15.9370 F   0  0  0  0  0  0  0  0  0  0  0  0
    5.9145  -10.3291   15.7100 C   0  0  0  0  0  0  0  0  0  0  0  0
    6.1674   -8.8440   15.2600 F   0  0  0  0  0  0  0  0  0  0  0  0
    5.9196   -7.4238   18.3277 F   0  0  0  0  0  0  0  0  0  0  0  0
    7.9799   -6.0070   16.9863 F   0  0  0  0  0  0  0  0  0  0  0  0
    9.4420   -7.4799   19.0840 F   0  0  0  0  0  0  0  0  0  0  0  0
    7.7504   -7.5601   15.9139 F   0  0  0  0  0  0  0  0  0  0  0  0
    5.7556   -6.9998   15.7216 F   0  0  0  0  0  0  0  0  0  0  0  0
    6.5590   -6.7529   17.3637 F   0  0  0  0  0  0  0  0  0  0  0  0
    5.3478   -9.2333   15.6709 C   0  0  0  0  0  0  0  0  0  0  0  0
    7.5317   -6.1345   16.6508 F   0  0  0  0  0  0  0  0  0  0  0  0
   10.3408   -5.6260   19.3385 F   0  0  0  0  0  0  0  0  0  0  0  0
    8.6658   -6.3797   18.1507 F   0  0  0  0  0  0  0  0  0  0  0  0
    4.3885   -9.2500   17.3886 F   0  0  0  0  0  0  0  0  0  0  0  0
    6.1071   -7.3672   15.8454 F   0  0  0  0  0  0  0  0  0  0  0  0
    8.6013   -8.3689   16.6144 F   0  0  0  0  0  0  0  0  0  0  0  0
    6.6750   -7.2196   18.4311 F   0  0  0  0  0  0  0  0  0  0  0  0
    7.7794   -8.5433   15.3883 F   0  0  0  0  0  0  0  0  0  0  0  0
    5.6662  -10.7785   16.7864 F   0  0  0  0  0  0  0  0  0  0  0  0
    5.1610   -9.6467   15.9095 C   0  0  0  0  0  0  0  0  0  0  0  0
    8.5514   -5.8962   18.5141 F   0  0  0  0  0  0  0  0  0  0  0  0
    9.1560   -7.7756   17.9452 F   0  0  0  0  0  0  0  0  0  0  0  0
    9.2542   -4.9899   16.6223 F   0  0  0  0  0  0  0  0  0  0  0  0
   10.8465   -4.4503   16.5976 F   0  0  0  0  0  0  0  0  0  0  0  0
    7.5022   -7.6007   17.7854 F   0  0  0  0  0  0  0  0  0  0  0  0
    9.3996   -6.8829   15.1860 F   0  0  0  0  0  0  0  0  0  0  0  0
    8.1665   -7.8588   15.0452 F   0  0  0  0  0  0  0  0  0  0  0  0
    6.0958  -11.0902   14.7444 F   0  0  0  0  0  0  0  0  0  0  0  0
    4.3536   -8.0296   16.5734 F   0  0  0  0  0  0  0  0  0  0  0  0
   10.5540   -4.7725   16.8002 F   0  0  0  0  0  0  0  0  0  0  0  0
    6.2640   -8.8893   18.2119 F   0  0  0  0  0  0  0  0  0  0  0  0
    9.7770   -6.6278   19.0162 F   0  0  0  0  0  0  0  0  0  0  0  0
M  END
$$$$

 Created by Python create_sdf_string function

 34 46  0  0  0  0  0  0  0  0999 V2000
    9.9629   -8.4323   18.1472 I   0  0  0  0  0  0  0  0  0  0  0  0
    7.2073   -6.2389   15.9281 P   0  0  0  0  0  0  0  0  0  0  0  0
    5.5344   -9.3001   13.9651 F   0  0  0  0  0  0  0  0  0  0  0  0
    5.5546   -7.7701   16.2335 Cl  0  0  0  0  0  0  0  0  0  0  0  0
    8.5639   -5.5667   18.5027 Cl  0  0  0  0  0  0  0  0  0  0  0  0
    8.7505   -7.3732   19.3824 O   0  0  0  0  0  0  0  0  0  0  0  0
    7.2186   -7.4252   15.5120 C   0  0  0  0  0  0  0  0  0  0  0  0
    6.0508   -6.8187   13.6188 B   0  0  0  0  0  0  0  0  0  0  0  0
    4.6828   -8.1472   16.2065 C   0  0  0  0  0  0  0  0  0  0  0  0
    8.9948   -6.5321   21.1182 C   0  0  0  0  0  0  0  0  0  0  0  0
    3.2194  -10.1922   16.0202 C   0  0  0  0  0  0  0  0  0  0  0  0
    7.1367   -6.2188   17.9377 F   0  0  0  0  0  0  0  0  0  0  0  0
    9.3701   -5.5061   16.2017 C   0  0  0  0  0  0  0  0  0  0  0  0
    9.4946   -8.5113   13.9776 Br  0  0  0  0  0  0  0  0  0  0  0  0
    7.7784   -8.7048   19.0616 F   0  0  0  0  0  0  0  0  0  0  0  0
    8.7244   -5.5943   16.5309 He  0  0  0  0  0  0  0  0  0  0  0  0
    5.8704   -8.0310   18.0659 He  0  0  0  0  0  0  0  0  0  0  0  0
    5.1245   -5.8857   19.0628 He  0  0  0  0  0  0  0  0  0  0  0  0
    7.4626   -7.7626   17.5150 He  0  0  0  0  0  0  0  0  0  0  0  0
    9.0637   -8.0558   15.7895 He  0  0  0  0  0  0  0  0  0  0  0  0
    6.3787   -7.3470   16.1530 He  0  0  0  0  0  0  0  0  0  0  0  0
    6.9527   -9.5666   16.8197 He  0  0  0  0  0  0  0  0  0  0  0  0
    7.3720   -8.6926   15.9250 He  0  0  0  0  0  0  0  0  0  0  0  0
    4.6543  -11.0744   18.1985 He  0  0  0  0  0  0  0  0  0  0  0  0
    5.3614  -10.8038   17.6782 He  0  0  0  0  0  0  0  0  0  0  0  0
    8.2718   -5.7124   19.3667 He  0  0  0  0  0  0  0  0  0  0  0  0
    9.8728   -7.9362   16.1712 He  0  0  0  0  0  0  0  0  0  0  0  0
   10.4262   -2.8745   17.1968 He  0  0  0  0  0  0  0  0  0  0  0  0
    6.7064   -8.2871   17.8623 He  0  0  0  0  0  0  0  0  0  0  0  0
    8.4462   -6.4742   15.5540 He  0  0  0  0  0  0  0  0  0  0  0  0
    6.2200  -10.0872   12.0190 He  0  0  0  0  0  0  0  0  0  0  0  0
    3.0043   -9.0215   16.9034 He  0  0  0  0  0  0  0  0  0  0  0  0
   10.9611   -5.0316   14.9087 He  0  0  0  0  0  0  0  0  0  0  0  0
    9.1658   -6.5619   19.8728 He  0  0  0  0  0  0  0  0  0  0  0  0
  1  3  2  0
  1  8  1  0
  1 10  4  0
  1 11  4  0
  1 13  1  0
  1 14  1  0
  2  3  4  0
  2  4  2  0
  2  5  1  0
  2  8  1  0
  2  9  1  0
  2 11  2  0
  2 12  2  0
  2 15  1  0
  3 13  1  0
  3 14  1  0
  3 15  2  0
  4  6  2  0
  4  7  4  0
  4  8  2  0
  4  9  1  0
  4 11  1  0
  5 11  3  0
  5 12  3  0
  5 14  1  0
  6  9  4  0
  6 10  1  0
  6 11  4  0
  6 13  1  0
  6 15  4  0
  7 10  4  0
  7 11  4  0
  7 12  3  0
  7 13  3  0
  8 12  2  0
  8 13  1  0
  8 14  2  0
  8 15  1  0
  9 10  3  0
  9 12  2  0
  9 13  2  0
  9 15  4  0
 10 13  1  0
 10 14  4  0
 11 15  1  0
 12 13  4  0
M  END
$$$$

 Created by Python create_sdf_string function

 34  1  0  0  0  0  0  0  0  0999 V2000
    9.2110   -5.0079   16.5240 C   0  0  0  0  0  0  0  0  0  0  0  0
    9.5321   -7.9023   18.2390 F   0  0  0  0  0  0  0  0  0  0  0  0
    7.2100   -6.1340   15.8742 F   0  0  0  0  0  0  0  0  0  0  0  0
    5.3232   -9.1980   15.2347 F   0  0  0  0  0  0  0  0  0  0  0  0
    4.8136   -8.0046   16.3059 F   0  0  0  0  0  0  0  0  0  0  0  0
    5.6625   -8.3949   18.0309 F   0  0  0  0  0  0  0  0  0  0  0  0
    9.5358   -5.0934   18.4680 C   0  0  0  0  0  0  0  0  0  0  0  0
    9.2613   -7.1376   19.0471 F   0  0  0  0  0  0  0  0  0  0  0  0
    7.1374   -7.3514   15.5041 F   0  0  0  0  0  0  0  0  0  0  0  0
    5.9781   -6.8984   14.8872 F   0  0  0  0  0  0  0  0  0  0  0  0
    6.0435   -7.0762   18.4877 F   0  0  0  0  0  0  0  0  0  0  0  0
    4.3016   -8.3161   16.3586 C   0  0  0  0  0  0  0  0  0  0  0  0
    7.5750   -7.8403   17.5456 C   0  0  0  0  0  0  0  0  0  0  0  0
    9.9213   -5.8907   19.9853 F   0  0  0  0  0  0  0  0  0  0  0  0
    8.5707   -8.1355   16.0721 F   0  0  0  0  0  0  0  0  0  0  0  0
    3.3606   -9.3691   16.5124 C   0  0  0  0  0  0  0  0  0  0  0  0
    6.0641   -7.3757   16.2047 F   0  0  0  0  0  0  0  0  0  0  0  0
    6.5493   -9.3031   16.9203 F   0  0  0  0  0  0  0  0  0  0  0  0
    7.6751   -6.4627   18.0349 F   0  0  0  0  0  0  0  0  0  0  0  0
    7.2644   -8.5724   15.9268 F   0  0  0  0  0  0  0  0  0  0  0  0
    4.3673  -10.2481   18.0027 F   0  0  0  0  0  0  0  0  0  0  0  0
    5.0405  -10.0355   17.6279 F   0  0  0  0  0  0  0  0  0  0  0  0
    9.3935   -5.2694   19.2464 F   0  0  0  0  0  0  0  0  0  0  0  0
    9.1835   -7.8728   16.7843 F   0  0  0  0  0  0  0  0  0  0  0  0
    9.5867   -4.6028   16.4446 C   0  0  0  0  0  0  0  0  0  0  0  0
   10.5191   -3.6358   17.0994 F   0  0  0  0  0  0  0  0  0  0  0  0
    6.4775   -8.3754   17.9511 F   0  0  0  0  0  0  0  0  0  0  0  0
    8.4992   -6.2887   15.7155 F   0  0  0  0  0  0  0  0  0  0  0  0
    8.6208   -8.2158   14.8944 F   0  0  0  0  0  0  0  0  0  0  0  0
    6.2397  -10.0994   14.7442 F   0  0  0  0  0  0  0  0  0  0  0  0
    3.3566   -9.0721   16.8860 C   0  0  0  0  0  0  0  0  0  0  0  0
   10.4364   -4.0436   15.7639 F   0  0  0  0  0  0  0  0  0  0  0  0
    7.6537   -8.2308   18.6120 F   0  0  0  0  0  0  0  0  0  0  0  0
    9.9131   -5.9858   19.3894 F   0  0  0  0  0  0  0  0  0  0  0  0
  5 12  1  0
M  END
$$$$

 Created by Python create_sdf_string function

 34 63  0  0  0  0  0  0  0  0999 V2000
   10.0355   -8.5857   17.3892 O   0  0  0  0  0  0  0  0  0  0  0  0
    6.6582   -7.5245   17.3572 N   0  0  0  0  0  0  0  0  0  0  0  0
    4.4042   -9.2498   14.6881 Cl  0  0  0  0  0  0  0  0  0  0  0  0
    5.6442   -9.4796   19.5386 N   0  0  0  0  0  0  0  0  0  0  0  0
    7.9116   -4.5822   20.4312 C   0  0  0  0  0  0  0  0  0  0  0  0
    8.9454   -7.4575   17.6818 S   0  0  0  0  0  0  0  0  0  0  0  0
   10.1730   -8.7363   17.0957 Cl  0  0  0  0  0  0  0  0  0  0  0  0
    2.5749   -9.3525   17.0551 N   0  0  0  0  0  0  0  0  0  0  0  0
    3.7459   -9.3923   16.3134 N   0  0  0  0  0  0  0  0  0  0  0  0
    8.0279   -8.3592   16.6118 S   0  0  0  0  0  0  0  0  0  0  0  0
    5.0259  -11.1853   17.1286 P   0  0  0  0  0  0  0  0  0  0  0  0
    9.7607   -5.8400   19.9873 Cl  0  0  0  0  0  0  0  0  0  0  0  0
    7.4627   -7.9751   17.7799 C   0  0  0  0  0  0  0  0  0  0  0  0
   10.7072   -5.2430   15.6622 S   0  0  0  0  0  0  0  0  0  0  0  0
    5.6417   -7.0726   17.3215 N   0  0  0  0  0  0  0  0  0  0  0  0
   10.6446   -7.1802   16.0739 O   0  0  0  0  0  0  0  0  0  0  0  0
    8.8271   -9.0242   15.1048 N   0  0  0  0  0  0  0  0  0  0  0  0
    8.1765  -10.8178   14.2786 Br  0  0  0  0  0  0  0  0  0  0  0  0
    9.7507   -7.4818   21.1091 O   0  0  0  0  0  0  0  0  0  0  0  0
    9.3233   -5.4723   17.3791 He  0  0  0  0  0  0  0  0  0  0  0  0
    3.4991   -9.3026   17.1735 He  0  0  0  0  0  0  0  0  0  0  0  0
    9.7376   -6.9659   19.5378 He  0  0  0  0  0  0  0  0  0  0  0  0
    7.1328   -8.1897   15.7578 He  0  0  0  0  0  0  0  0  0  0  0  0
    5.1568   -6.7727   16.2112 He  0  0  0  0  0  0  0  0  0  0  0  0
    5.5214   -7.6037   17.0915 He  0  0  0  0  0  0  0  0  0  0  0  0
    4.3423   -6.2959   16.6740 He  0  0  0  0  0  0  0  0  0  0  0  0
    9.4904   -3.2898   22.0285 He  0  0  0  0  0  0  0  0  0  0  0  0
    6.1017   -9.4542   16.3643 He  0  0  0  0  0  0  0  0  0  0  0  0
    7.5293   -5.8996   17.6012 He  0  0  0  0  0  0  0  0  0  0  0  0
    3.9366  -10.8914   18.1088 He  0  0  0  0  0  0  0  0  0  0  0  0
   12.0748   -3.4674   16.6480 He  0  0  0  0  0  0  0  0  0  0  0  0
    2.8060   -7.8162   18.2138 He  0  0  0  0  0  0  0  0  0  0  0  0
    8.8280   -3.6726   17.0758 He  0  0  0  0  0  0  0  0  0  0  0  0
    8.1326   -9.2842   18.4281 He  0  0  0  0  0  0  0  0  0  0  0  0
  1  3  3  0
  1  6  1  0
  1 11  1  0
  1 12  1  0
  1 14  2  0
  1 19  2  0
  2  5  1  0
  2  6  1  0
  2 10  1  0
  2 12  2  0
  2 13  4  0
  2 18  4  0
  3  5  3  0
  3  7  4  0
  3 11  2  0
  3 16  1  0
  3 17  3  0
  3 18  4  0
  4  6  4  0
  4  7  1  0
  4  8  1  0
  4 10  3  0
  4 15  1  0
  5  8  3  0
  5 11  4  0
  5 12  3  0
  5 14  1  0
  5 18  4  0
  6  7  2  0
  6  8  1  0
  6 10  2  0
  6 14  4  0
  6 19  4  0
  7  8  3  0
  7 11  1  0
  7 16  3  0
  7 17  1  0
  7 19  1  0
  8  9  2  0
  8 13  3  0
  8 15  4  0
  8 17  4  0
  8 19  3  0
  9 14  3  0
 10 11  3  0
 10 12  3  0
 10 13  3  0
 10 14  4  0
 10 16  3  0
 10 18  3  0
 11 12  4  0
 11 13  4  0
 11 16  2  0
 11 18  1  0
 12 14  2  0
 13 17  1  0
 13 19  3  0
 14 15  3  0
 14 16  4  0
 14 17  3  0
 14 18  4  0
 16 18  4  0
 18 19  1  0
M  END
$$$$

 Created by Python create_sdf_string function

 34  1  0  0  0  0  0  0  0  0999 V2000
    9.7740   -4.9975   17.6522 C   0  0  0  0  0  0  0  0  0  0  0  0
    9.4238   -7.8669   17.8155 F   0  0  0  0  0  0  0  0  0  0  0  0
    6.7347   -7.3576   17.4447 F   0  0  0  0  0  0  0  0  0  0  0  0
    4.2828   -8.8751   15.3887 F   0  0  0  0  0  0  0  0  0  0  0  0
    3.3009   -9.4055   17.1168 C   0  0  0  0  0  0  0  0  0  0  0  0
    5.5718   -9.1320   18.4803 F   0  0  0  0  0  0  0  0  0  0  0  0
    9.6754   -4.3280   19.8190 C   0  0  0  0  0  0  0  0  0  0  0  0
    9.8628   -6.1192   19.1426 F   0  0  0  0  0  0  0  0  0  0  0  0
    6.9395   -8.0413   15.8147 F   0  0  0  0  0  0  0  0  0  0  0  0
    5.2915   -7.0354   16.0941 F   0  0  0  0  0  0  0  0  0  0  0  0
    5.1208   -7.8155   16.9877 C   0  0  0  0  0  0  0  0  0  0  0  0
    4.1769   -6.9779   16.1677 F   0  0  0  0  0  0  0  0  0  0  0  0
    9.0236   -7.0435   17.8780 C   0  0  0  0  0  0  0  0  0  0  0  0
   10.2557   -4.0749   21.0027 F   0  0  0  0  0  0  0  0  0  0  0  0
    9.4581   -8.1463   17.3937 F   0  0  0  0  0  0  0  0  0  0  0  0
    2.7221   -9.5140   17.0486 C   0  0  0  0  0  0  0  0  0  0  0  0
    3.5912   -9.1429   16.5726 C   0  0  0  0  0  0  0  0  0  0  0  0
    5.7928   -9.4205   16.3460 F   0  0  0  0  0  0  0  0  0  0  0  0
    8.0097   -6.1217   17.5731 F   0  0  0  0  0  0  0  0  0  0  0  0
    8.0574   -8.1783   16.5768 C   0  0  0  0  0  0  0  0  0  0  0  0
    3.6692  -10.4732   18.0461 C   0  0  0  0  0  0  0  0  0  0  0  0
    4.6428  -10.3785   17.4496 F   0  0  0  0  0  0  0  0  0  0  0  0
   10.0857   -5.0315   19.6249 C   0  0  0  0  0  0  0  0  0  0  0  0
    7.4655   -7.7178   17.8313 F   0  0  0  0  0  0  0  0  0  0  0  0
   10.3843   -4.3868   16.3287 C   0  0  0  0  0  0  0  0  0  0  0  0
   11.0561   -3.5515   16.8367 F   0  0  0  0  0  0  0  0  0  0  0  0
    5.6554   -7.1867   17.3164 F   0  0  0  0  0  0  0  0  0  0  0  0
    9.7892   -6.0043   16.5763 F   0  0  0  0  0  0  0  0  0  0  0  0
    8.1827   -8.4021   15.4964 F   0  0  0  0  0  0  0  0  0  0  0  0
    7.3425   -9.3432   15.2681 F   0  0  0  0  0  0  0  0  0  0  0  0
    3.1874   -8.3378   17.0313 F   0  0  0  0  0  0  0  0  0  0  0  0
    9.6178   -3.9840   16.8339 F   0  0  0  0  0  0  0  0  0  0  0  0
    8.0209   -8.2906   18.1753 F   0  0  0  0  0  0  0  0  0  0  0  0
    9.9970   -6.3520   20.0919 F   0  0  0  0  0  0  0  0  0  0  0  0
  7 23  1  0
M  END
$$$$

 Created by Python create_sdf_string function

 34 65  0  0  0  0  0  0  0  0999 V2000
    8.2524   -6.5548   17.8266 C   0  0  0  0  0  0  0  0  0  0  0  0
    4.1316   -9.0054   15.9065 Se  0  0  0  0  0  0  0  0  0  0  0  0
    3.7996   -9.7881   16.1857 B   0  0  0  0  0  0  0  0  0  0  0  0
   10.9692   -3.2759   21.1207 S   0  0  0  0  0  0  0  0  0  0  0  0
    4.2628   -6.7026   16.7338 S   0  0  0  0  0  0  0  0  0  0  0  0
    5.8607   -7.5681   16.5487 C   0  0  0  0  0  0  0  0  0  0  0  0
   10.3391   -6.1312   17.9198 C   0  0  0  0  0  0  0  0  0  0  0  0
    9.2193   -7.6171   16.2796 N   0  0  0  0  0  0  0  0  0  0  0  0
    3.5832   -9.1158   16.4959 F   0  0  0  0  0  0  0  0  0  0  0  0
    4.9454   -8.9868   15.0535 O   0  0  0  0  0  0  0  0  0  0  0  0
   11.3422   -4.4973   19.3129 B   0  0  0  0  0  0  0  0  0  0  0  0
   11.1966   -5.0368   16.7715 C   0  0  0  0  0  0  0  0  0  0  0  0
   13.3293   -3.1496   16.9838 C   0  0  0  0  0  0  0  0  0  0  0  0
    4.6870   -7.1553   18.8504 C   0  0  0  0  0  0  0  0  0  0  0  0
    9.0395   -5.2937   17.2812 N   0  0  0  0  0  0  0  0  0  0  0  0
    2.8282   -8.5977   15.1423 S   0  0  0  0  0  0  0  0  0  0  0  0
    9.5263   -3.2255   16.8028 Cl  0  0  0  0  0  0  0  0  0  0  0  0
    8.4883   -8.1467   17.7114 N   0  0  0  0  0  0  0  0  0  0  0  0
    9.3057   -4.5824   17.3223 He  0  0  0  0  0  0  0  0  0  0  0  0
    6.6588   -6.6686   16.4282 He  0  0  0  0  0  0  0  0  0  0  0  0
    6.8054   -8.9370   16.4857 He  0  0  0  0  0  0  0  0  0  0  0  0
    9.7480   -6.8002   20.0452 He  0  0  0  0  0  0  0  0  0  0  0  0
    6.9951   -6.9350   15.4559 He  0  0  0  0  0  0  0  0  0  0  0  0
    3.6174   -8.3721   17.7155 He  0  0  0  0  0  0  0  0  0  0  0  0
   11.1235   -4.1037   19.8537 He  0  0  0  0  0  0  0  0  0  0  0  0
    3.4238   -9.7597   16.3610 He  0  0  0  0  0  0  0  0  0  0  0  0
    8.3618   -5.6670   18.0303 He  0  0  0  0  0  0  0  0  0  0  0  0
    8.3372   -9.4921   16.0861 He  0  0  0  0  0  0  0  0  0  0  0  0
    2.0820   -9.3514   16.9471 He  0  0  0  0  0  0  0  0  0  0  0  0
    4.8825  -10.9436   17.2350 He  0  0  0  0  0  0  0  0  0  0  0  0
    7.6038   -8.6657   17.9475 He  0  0  0  0  0  0  0  0  0  0  0  0
    7.3500   -8.1728   14.9874 He  0  0  0  0  0  0  0  0  0  0  0  0
    6.9798  -10.5849   15.0515 He  0  0  0  0  0  0  0  0  0  0  0  0
   11.7371   -7.5630   18.6194 He  0  0  0  0  0  0  0  0  0  0  0  0
  1  4  1  0
  1  7  2  0
  1  9  2  0
  1 11  4  0
  1 12  2  0
  1 14  1  0
  1 16  3  0
  1 17  3  0
  2  3  4  0
  2  4  3  0
  2  5  3  0
  2  6  4  0
  2  7  3  0
  2 12  1  0
  2 13  3  0
  2 14  4  0
  2 16  2  0
  3  4  2  0
  3  6  4  0
  3  7  2  0
  3  8  3  0
  3 11  1  0
  3 17  3  0
  3 18  2  0
  4  5  2  0
  4  6  1  0
  4  8  1  0
  4 10  2  0
  4 11  4  0
  4 14  3  0
  4 17  1  0
  5  7  3  0
  5  9  3  0
  5 11  4  0
  5 16  1  0
  5 17  2  0
  5 18  3  0
  6  7  2  0
  6  8  2  0
  6 10  1  0
  6 12  1  0
  6 17  3  0
  7 11  1  0
  7 12  3  0
  7 13  4  0
  7 15  3  0
  8  9  3  0
  8 11  2  0
  8 13  3  0
  8 14  2  0
  8 17  1  0
  8 18  4  0
  9 11  4  0
  9 13  4  0
  9 14  4  0
  9 18  3  0
 10 13  2  0
 10 17  2  0
 11 14  1  0
 11 16  1  0
 11 18  4  0
 12 15  2  0
 13 16  3  0
 14 16  2  0
 15 17  3  0
M  END
$$$$

 Created by Python create_sdf_string function

 34  0  0  0  0  0  0  0  0  0999 V2000
    9.7049   -4.6032   17.0647 F   0  0  0  0  0  0  0  0  0  0  0  0
    8.3768   -6.4354   17.8364 F   0  0  0  0  0  0  0  0  0  0  0  0
    6.6863   -6.6354   16.5360 F   0  0  0  0  0  0  0  0  0  0  0  0
    3.9317   -8.8479   16.1007 C   0  0  0  0  0  0  0  0  0  0  0  0
    3.5513   -9.4097   16.4877 C   0  0  0  0  0  0  0  0  0  0  0  0
    6.6806   -8.7371   16.7124 F   0  0  0  0  0  0  0  0  0  0  0  0
   10.9818   -4.0288   20.5600 C   0  0  0  0  0  0  0  0  0  0  0  0
   10.1106   -6.1456   19.5177 F   0  0  0  0  0  0  0  0  0  0  0  0
    6.9813   -6.7683   15.6862 F   0  0  0  0  0  0  0  0  0  0  0  0
    4.1219   -7.3301   16.4432 F   0  0  0  0  0  0  0  0  0  0  0  0
    5.8167   -7.6741   16.6990 C   0  0  0  0  0  0  0  0  0  0  0  0
    3.7303   -8.6030   17.3154 F   0  0  0  0  0  0  0  0  0  0  0  0
   10.2939   -5.7067   18.3398 C   0  0  0  0  0  0  0  0  0  0  0  0
   11.0458   -4.2681   19.6619 C   0  0  0  0  0  0  0  0  0  0  0  0
    8.8397   -7.3686   16.7059 F   0  0  0  0  0  0  0  0  0  0  0  0
    2.9499   -9.4247   16.7598 C   0  0  0  0  0  0  0  0  0  0  0  0
    3.0995   -9.0535   16.7613 F   0  0  0  0  0  0  0  0  0  0  0  0
    4.8164   -8.7722   15.5210 F   0  0  0  0  0  0  0  0  0  0  0  0
    8.6860   -5.8985   17.9726 F   0  0  0  0  0  0  0  0  0  0  0  0
    8.1233   -8.5432   16.1097 F   0  0  0  0  0  0  0  0  0  0  0  0
    2.0148   -9.5231   16.9184 C   0  0  0  0  0  0  0  0  0  0  0  0
    4.7271  -10.0419   17.4680 F   0  0  0  0  0  0  0  0  0  0  0  0
   11.0897   -4.4880   19.3368 C   0  0  0  0  0  0  0  0  0  0  0  0
    7.4999   -8.3372   17.8433 F   0  0  0  0  0  0  0  0  0  0  0  0
   10.9259   -4.3368   17.3274 C   0  0  0  0  0  0  0  0  0  0  0  0
   11.7001   -3.3137   17.3290 F   0  0  0  0  0  0  0  0  0  0  0  0
    5.4500   -7.6101   18.1944 F   0  0  0  0  0  0  0  0  0  0  0  0
    9.2499   -5.2741   17.0811 F   0  0  0  0  0  0  0  0  0  0  0  0
    7.4841   -8.1687   15.5626 F   0  0  0  0  0  0  0  0  0  0  0  0
    6.6663   -9.6795   15.4844 F   0  0  0  0  0  0  0  0  0  0  0  0
    2.6247   -8.7918   15.7413 C   0  0  0  0  0  0  0  0  0  0  0  0
   10.0439   -3.7989   16.4973 F   0  0  0  0  0  0  0  0  0  0  0  0
    8.5357   -7.9773   17.7786 F   0  0  0  0  0  0  0  0  0  0  0  0
   10.7556   -6.8367   18.6573 F   0  0  0  0  0  0  0  0  0  0  0  0
M  END
$$$$

 Created by Python create_sdf_string function

 34 37  0  0  0  0  0  0  0  0999 V2000
    6.3846  -10.3401   14.3658 N   0  0  0  0  0  0  0  0  0  0  0  0
   11.6592   -4.4433   22.1122 F   0  0  0  0  0  0  0  0  0  0  0  0
    3.9059   -7.8910   16.0324 C   0  0  0  0  0  0  0  0  0  0  0  0
    4.3474   -8.9672   16.8416 F   0  0  0  0  0  0  0  0  0  0  0  0
   11.0702   -3.7051   17.0656 C   0  0  0  0  0  0  0  0  0  0  0  0
   10.9102   -3.4913   19.2830 C   0  0  0  0  0  0  0  0  0  0  0  0
    4.6865  -11.6408   17.8960 S   0  0  0  0  0  0  0  0  0  0  0  0
    5.0202  -11.1582   18.0392 F   0  0  0  0  0  0  0  0  0  0  0  0
    7.5740   -7.7513   17.2949 N   0  0  0  0  0  0  0  0  0  0  0  0
   11.3071   -2.7480   16.9639 C   0  0  0  0  0  0  0  0  0  0  0  0
    5.7978   -8.9812   18.1683 S   0  0  0  0  0  0  0  0  0  0  0  0
    2.8599   -9.7285   15.8089 P   0  0  0  0  0  0  0  0  0  0  0  0
   10.3052   -8.6281   17.6320 S   0  0  0  0  0  0  0  0  0  0  0  0
   11.4712   -6.7081   18.4476 C   0  0  0  0  0  0  0  0  0  0  0  0
   10.5200   -5.5585   16.5138 He  0  0  0  0  0  0  0  0  0  0  0  0
    9.1161   -7.8636   17.6537 He  0  0  0  0  0  0  0  0  0  0  0  0
    7.7412   -5.9113   18.5621 He  0  0  0  0  0  0  0  0  0  0  0  0
    5.2358   -8.0129   15.6169 He  0  0  0  0  0  0  0  0  0  0  0  0
    4.5439  -10.3697   17.1282 He  0  0  0  0  0  0  0  0  0  0  0  0
   11.1121   -6.1024   18.6385 He  0  0  0  0  0  0  0  0  0  0  0  0
    7.1663   -6.6383   16.8412 He  0  0  0  0  0  0  0  0  0  0  0  0
    5.8610   -5.8262   15.3211 He  0  0  0  0  0  0  0  0  0  0  0  0
   10.2016   -7.3568   17.4623 He  0  0  0  0  0  0  0  0  0  0  0  0
    2.6697  -11.2404   16.2293 He  0  0  0  0  0  0  0  0  0  0  0  0
    4.8083  -10.5536   15.0314 He  0  0  0  0  0  0  0  0  0  0  0  0
    9.4076   -5.8417   17.5429 He  0  0  0  0  0  0  0  0  0  0  0  0
    7.9280   -9.0830   16.5310 He  0  0  0  0  0  0  0  0  0  0  0  0
    1.4514   -8.6303   16.9943 He  0  0  0  0  0  0  0  0  0  0  0  0
   11.3393   -5.8991   18.9232 He  0  0  0  0  0  0  0  0  0  0  0  0
   12.0529   -3.2396   17.2421 He  0  0  0  0  0  0  0  0  0  0  0  0
   11.0120   -5.6562   17.0654 He  0  0  0  0  0  0  0  0  0  0  0  0
    7.7713   -8.5620   15.9918 He  0  0  0  0  0  0  0  0  0  0  0  0
    5.0343  -10.3867   15.2706 He  0  0  0  0  0  0  0  0  0  0  0  0
   11.0882   -2.8638   17.0294 He  0  0  0  0  0  0  0  0  0  0  0  0
  1  3  3  0
  1  6  3  0
  1  7  4  0
  1  9  2  0
  1 10  2  0
  1 11  2  0
  1 12  1  0
  1 13  1  0
  1 14  2  0
  2  3  2  0
  2  6  2  0
  2  7  3  0
  2  8  2  0
  2 11  3  0
  2 12  2  0
  2 13  1  0
  3  4  4  0
  3 11  3  0
  3 12  4  0
  4  7  3  0
  4 10  1  0
  4 12  2  0
  5  7  2  0
  5 10  4  0
  5 11  4  0
  6  7  4  0
  6  9  4  0
  6 11  4  0
  7  8  4  0
  7 10  3  0
  7 12  4  0
  7 13  2  0
  8 10  4  0
  8 11  1  0
 10 11  4  0
 10 13  2  0
 12 13  1  0
M  END
$$$$

 Created by Python create_sdf_string function

 34  0  0  0  0  0  0  0  0  0999 V2000
   10.0918   -4.8803   16.8536 F   0  0  0  0  0  0  0  0  0  0  0  0
    8.7600   -7.7155   17.7817 C   0  0  0  0  0  0  0  0  0  0  0  0
    8.0791   -6.1121   18.1858 F   0  0  0  0  0  0  0  0  0  0  0  0
    5.2876   -8.0934   15.9775 C   0  0  0  0  0  0  0  0  0  0  0  0
    4.1634   -9.8502   17.3214 C   0  0  0  0  0  0  0  0  0  0  0  0
    6.3217   -9.8685   15.2633 F   0  0  0  0  0  0  0  0  0  0  0  0
   11.2303   -4.5593   20.9429 C   0  0  0  0  0  0  0  0  0  0  0  0
   10.6773   -5.6144   19.0554 C   0  0  0  0  0  0  0  0  0  0  0  0
    7.2888   -6.7084   16.7444 C   0  0  0  0  0  0  0  0  0  0  0  0
    3.7764   -8.2054   16.2640 C   0  0  0  0  0  0  0  0  0  0  0  0
    6.3093   -6.5056   15.8690 F   0  0  0  0  0  0  0  0  0  0  0  0
    4.0415   -8.8696   16.7464 C   0  0  0  0  0  0  0  0  0  0  0  0
   10.9411   -3.7293   17.0716 C   0  0  0  0  0  0  0  0  0  0  0  0
   10.9945   -3.9048   19.6080 C   0  0  0  0  0  0  0  0  0  0  0  0
    9.6424   -6.9440   17.8818 C   0  0  0  0  0  0  0  0  0  0  0  0
    2.4078  -10.0716   17.2389 C   0  0  0  0  0  0  0  0  0  0  0  0
    4.1025  -10.5873   18.0899 C   0  0  0  0  0  0  0  0  0  0  0  0
    4.9094   -9.7974   15.6580 C   0  0  0  0  0  0  0  0  0  0  0  0
    9.2380   -5.7835   17.5632 C   0  0  0  0  0  0  0  0  0  0  0  0
    7.7313   -8.5247   16.5798 F   0  0  0  0  0  0  0  0  0  0  0  0
    2.0666   -8.9553   16.5367 C   0  0  0  0  0  0  0  0  0  0  0  0
    4.5519  -10.2396   17.9450 C   0  0  0  0  0  0  0  0  0  0  0  0
   10.9445   -5.3524   19.3666 C   0  0  0  0  0  0  0  0  0  0  0  0
    7.4704   -7.7157   17.3554 F   0  0  0  0  0  0  0  0  0  0  0  0
   11.4703   -3.3601   17.2286 C   0  0  0  0  0  0  0  0  0  0  0  0
   11.3159   -3.1640   16.9947 C   0  0  0  0  0  0  0  0  0  0  0  0
    5.8651   -8.7888   17.8248 F   0  0  0  0  0  0  0  0  0  0  0  0
   10.5756   -5.0766   17.5143 C   0  0  0  0  0  0  0  0  0  0  0  0
    7.6034   -8.3462   16.0337 F   0  0  0  0  0  0  0  0  0  0  0  0
    5.1690   -9.7260   15.8147 C   0  0  0  0  0  0  0  0  0  0  0  0
    2.6985   -9.2671   16.2870 C   0  0  0  0  0  0  0  0  0  0  0  0
   11.1391   -3.2953   17.0978 C   0  0  0  0  0  0  0  0  0  0  0  0
    9.6166   -8.0524   17.9324 F   0  0  0  0  0  0  0  0  0  0  0  0
   10.9032   -6.1690   18.9252 F   0  0  0  0  0  0  0  0  0  0  0  0
M  END
$$$$

 Created by Python create_sdf_string function

 34 47  0  0  0  0  0  0  0  0999 V2000
    8.3466   -4.2812   16.6008 F   0  0  0  0  0  0  0  0  0  0  0  0
    7.5732   -6.8963   16.1242 C   0  0  0  0  0  0  0  0  0  0  0  0
    6.2930   -4.9909   18.0481 Cl  0  0  0  0  0  0  0  0  0  0  0  0
    3.2688   -9.9826   17.5568 C   0  0  0  0  0  0  0  0  0  0  0  0
   10.8388   -3.8848   17.6418 N   0  0  0  0  0  0  0  0  0  0  0  0
    9.9550   -5.9207   18.5680 F   0  0  0  0  0  0  0  0  0  0  0  0
    2.7209   -9.0836   18.6771 Cl  0  0  0  0  0  0  0  0  0  0  0  0
    4.3653   -9.9235   14.2104 C   0  0  0  0  0  0  0  0  0  0  0  0
   10.4714   -9.0258   15.6672 C   0  0  0  0  0  0  0  0  0  0  0  0
   12.6960   -3.3449   16.4048 F   0  0  0  0  0  0  0  0  0  0  0  0
    9.0782   -3.1696   16.8647 F   0  0  0  0  0  0  0  0  0  0  0  0
    5.9012   -9.9641   16.2585 S   0  0  0  0  0  0  0  0  0  0  0  0
   11.9349   -5.8562   17.0200 O   0  0  0  0  0  0  0  0  0  0  0  0
    3.6233  -10.2089   15.2209 N   0  0  0  0  0  0  0  0  0  0  0  0
    3.0835   -8.1507   15.6366 F   0  0  0  0  0  0  0  0  0  0  0  0
   11.1863   -5.7388   19.1813 P   0  0  0  0  0  0  0  0  0  0  0  0
    7.2417   -8.6750   17.3114 He  0  0  0  0  0  0  0  0  0  0  0  0
    9.4824   -5.7452   17.8774 He  0  0  0  0  0  0  0  0  0  0  0  0
    5.9187   -7.8832   15.1473 He  0  0  0  0  0  0  0  0  0  0  0  0
    4.5621   -9.1094   16.9522 He  0  0  0  0  0  0  0  0  0  0  0  0
    6.1256   -8.0113   14.5585 He  0  0  0  0  0  0  0  0  0  0  0  0
   10.0800   -4.7691   21.7392 He  0  0  0  0  0  0  0  0  0  0  0  0
   11.5859   -6.0043   19.7740 He  0  0  0  0  0  0  0  0  0  0  0  0
    3.4136   -7.2446   14.9346 He  0  0  0  0  0  0  0  0  0  0  0  0
   11.2662   -3.6042   15.5120 He  0  0  0  0  0  0  0  0  0  0  0  0
    2.3697  -11.0549   19.6468 He  0  0  0  0  0  0  0  0  0  0  0  0
    9.5426   -5.8898   17.2439 He  0  0  0  0  0  0  0  0  0  0  0  0
    2.8716  -10.7593   17.4521 He  0  0  0  0  0  0  0  0  0  0  0  0
    4.6782  -12.1766   15.9453 He  0  0  0  0  0  0  0  0  0  0  0  0
   10.2863   -5.0027   20.5306 He  0  0  0  0  0  0  0  0  0  0  0  0
    7.4698   -6.7358   16.2034 He  0  0  0  0  0  0  0  0  0  0  0  0
    7.3723   -9.5160   15.9566 He  0  0  0  0  0  0  0  0  0  0  0  0
   11.7862   -3.9545   16.6606 He  0  0  0  0  0  0  0  0  0  0  0  0
    8.7145   -7.7242   17.5777 He  0  0  0  0  0  0  0  0  0  0  0  0
  1  5  3  0
  1  9  3  0
  1 14  3  0
  2  3  1  0
  2  5  3  0
  2  8  1  0
  2 16  3  0
  3  5  3  0
  3  7  2  0
  3  9  3  0
  3 14  1  0
  3 16  2  0
  4  6  2  0
  4  9  2  0
  4 12  1  0
  4 13  1  0
  4 14  2  0
  5  6  1  0
  5  7  1  0
  5  8  3  0
  5  9  3  0
  5 12  1  0
  5 13  1  0
  5 14  2  0
  5 16  3  0
  6  7  3  0
  6  8  2  0
  6 11  2  0
  6 15  1  0
  6 16  1  0
  7  8  2  0
  7 11  2  0
  7 14  1  0
  7 16  2  0
  8  9  4  0
  9 10  4  0
  9 11  2  0
  9 15  1  0
 10 14  3  0
 11 13  4  0
 11 15  2  0
 11 16  4  0
 12 13  4  0
 12 14  3  0
 13 15  4  0
 13 16  3  0
 14 15  2  0
M  END
$$$$

 Created by Python create_sdf_string function

 34  2  0  0  0  0  0  0  0  0999 V2000
    8.8462   -4.7702   16.3435 F   0  0  0  0  0  0  0  0  0  0  0  0
    7.1286   -8.3943   17.3522 F   0  0  0  0  0  0  0  0  0  0  0  0
    9.5160   -5.8311   17.9378 C   0  0  0  0  0  0  0  0  0  0  0  0
    5.6759   -7.8394   15.5891 C   0  0  0  0  0  0  0  0  0  0  0  0
    4.4122   -9.1548   17.0039 C   0  0  0  0  0  0  0  0  0  0  0  0
    5.9645   -7.9940   15.3864 C   0  0  0  0  0  0  0  0  0  0  0  0
   10.7076   -4.5107   21.0023 C   0  0  0  0  0  0  0  0  0  0  0  0
   11.1694   -5.3705   19.6730 C   0  0  0  0  0  0  0  0  0  0  0  0
    7.6023   -6.9763   16.2968 C   0  0  0  0  0  0  0  0  0  0  0  0
    3.8045   -7.7332   15.6973 C   0  0  0  0  0  0  0  0  0  0  0  0
    7.1234   -6.3301   17.8708 F   0  0  0  0  0  0  0  0  0  0  0  0
    3.2176  -10.0805   17.5757 C   0  0  0  0  0  0  0  0  0  0  0  0
   11.3243   -3.6013   15.8580 C   0  0  0  0  0  0  0  0  0  0  0  0
   10.8980   -3.9955   17.7204 C   0  0  0  0  0  0  0  0  0  0  0  0
   10.0340   -5.8187   18.6963 C   0  0  0  0  0  0  0  0  0  0  0  0
    3.0270  -10.1542   17.8833 C   0  0  0  0  0  0  0  0  0  0  0  0
    2.7680  -11.2800   18.8765 C   0  0  0  0  0  0  0  0  0  0  0  0
    4.5776   -9.2779   15.2346 C   0  0  0  0  0  0  0  0  0  0  0  0
    9.3795   -5.9350   17.3767 C   0  0  0  0  0  0  0  0  0  0  0  0
    8.9896   -8.4467   16.3147 F   0  0  0  0  0  0  0  0  0  0  0  0
    2.8239  -10.4957   17.8807 C   0  0  0  0  0  0  0  0  0  0  0  0
    4.9918  -10.7204   17.0462 C   0  0  0  0  0  0  0  0  0  0  0  0
   10.5640   -4.5930   20.2539 C   0  0  0  0  0  0  0  0  0  0  0  0
    7.4216   -6.7280   16.2461 C   0  0  0  0  0  0  0  0  0  0  0  0
   12.0164   -3.4115   16.3688 C   0  0  0  0  0  0  0  0  0  0  0  0
    9.7400   -3.8405   16.3972 F   0  0  0  0  0  0  0  0  0  0  0  0
    5.7486   -9.6820   16.4402 C   0  0  0  0  0  0  0  0  0  0  0  0
   11.4089   -4.8983   17.6337 C   0  0  0  0  0  0  0  0  0  0  0  0
    7.1038   -8.9280   15.9660 C   0  0  0  0  0  0  0  0  0  0  0  0
    3.6037   -9.4389   16.0841 C   0  0  0  0  0  0  0  0  0  0  0  0
    3.3910   -8.5521   16.1406 C   0  0  0  0  0  0  0  0  0  0  0  0
   11.4883   -3.7619   16.7789 C   0  0  0  0  0  0  0  0  0  0  0  0
    8.6892   -7.6936   17.6893 F   0  0  0  0  0  0  0  0  0  0  0  0
   10.8889   -5.2511   19.1452 C   0  0  0  0  0  0  0  0  0  0  0  0
  4  6  1  0
  9 24  1  0
M  END
$$$$

 Created by Python create_sdf_string function

 34 54  0  0  0  0  0  0  0  0999 V2000
    4.7317   -7.4652   16.9024 Cl  0  0  0  0  0  0  0  0  0  0  0  0
    4.8451   -8.5424   17.1995 S   0  0  0  0  0  0  0  0  0  0  0  0
    5.5392   -8.9354   16.6878 O   0  0  0  0  0  0  0  0  0  0  0  0
    4.2650   -7.9012   14.0222 F   0  0  0  0  0  0  0  0  0  0  0  0
   10.3991   -5.4849   19.7347 Se  0  0  0  0  0  0  0  0  0  0  0  0
    1.6789   -8.6963   15.7601 N   0  0  0  0  0  0  0  0  0  0  0  0
    6.7746   -6.1464   18.8768 F   0  0  0  0  0  0  0  0  0  0  0  0
    2.7105  -10.0116   17.9642 O   0  0  0  0  0  0  0  0  0  0  0  0
   11.9471   -2.9169   16.4619 C   0  0  0  0  0  0  0  0  0  0  0  0
    5.9087   -9.6235   17.0768 C   0  0  0  0  0  0  0  0  0  0  0  0
   10.3377   -8.2384   15.2484 Br  0  0  0  0  0  0  0  0  0  0  0  0
    3.0894  -10.9818   18.0039 C   0  0  0  0  0  0  0  0  0  0  0  0
   10.6660   -3.8725   19.8879 O   0  0  0  0  0  0  0  0  0  0  0  0
    7.5026  -10.5562   16.1387 O   0  0  0  0  0  0  0  0  0  0  0  0
    9.9377   -6.4310   18.1947 F   0  0  0  0  0  0  0  0  0  0  0  0
    3.3897   -7.0155   14.4382 S   0  0  0  0  0  0  0  0  0  0  0  0
    8.9687   -3.6561   19.9795 C   0  0  0  0  0  0  0  0  0  0  0  0
    9.9930   -5.7848   16.6606 He  0  0  0  0  0  0  0  0  0  0  0  0
    9.2363   -6.0270   17.2363 He  0  0  0  0  0  0  0  0  0  0  0  0
   10.8825   -4.7003   21.1591 He  0  0  0  0  0  0  0  0  0  0  0  0
    7.9878   -6.8984   16.1556 He  0  0  0  0  0  0  0  0  0  0  0  0
   12.0520   -2.9327   17.6989 He  0  0  0  0  0  0  0  0  0  0  0  0
    9.5839   -5.3472   18.9825 He  0  0  0  0  0  0  0  0  0  0  0  0
    3.4102  -11.0283   18.4913 He  0  0  0  0  0  0  0  0  0  0  0  0
    3.5779  -10.5115   18.8168 He  0  0  0  0  0  0  0  0  0  0  0  0
    8.1506   -6.1687   18.1602 He  0  0  0  0  0  0  0  0  0  0  0  0
    4.8908  -12.2936   19.5932 He  0  0  0  0  0  0  0  0  0  0  0  0
    6.5193   -6.3335   17.4737 He  0  0  0  0  0  0  0  0  0  0  0  0
   13.6846   -1.8273   17.4362 He  0  0  0  0  0  0  0  0  0  0  0  0
    8.8621   -4.3348   15.5855 He  0  0  0  0  0  0  0  0  0  0  0  0
    8.2092   -8.5000   17.1043 He  0  0  0  0  0  0  0  0  0  0  0  0
    3.8352   -9.4068   18.3564 He  0  0  0  0  0  0  0  0  0  0  0  0
   11.3038   -3.6064   17.0647 He  0  0  0  0  0  0  0  0  0  0  0  0
    8.7179   -9.5073   17.1663 He  0  0  0  0  0  0  0  0  0  0  0  0
  1  6  1  0
  1  8  3  0
  1 11  1  0
  1 12  1  0
  1 17  1  0
  2  3  4  0
  2  5  2  0
  2  6  4  0
  2  8  2  0
  2  9  3  0
  2 10  2  0
  2 12  2  0
  2 15  1  0
  2 16  4  0
  3  4  3  0
  3  7  1  0
  3  9  2  0
  3 14  1  0
  3 15  2  0
  3 16  4  0
  4  5  4  0
  4  8  3  0
  4  9  2  0
  4 10  1  0
  4 13  2  0
  5  8  1  0
  5  9  4  0
  5 17  2  0
  6  9  1  0
  6 10  1  0
  6 16  3  0
  6 17  1  0
  7  8  2  0
  7  9  3  0
  7 12  3  0
  8 10  1  0
  8 11  1  0
  8 12  1  0
  8 13  1  0
  8 16  3  0
  9 10  1  0
  9 12  3  0
  9 13  1  0
  9 15  1  0
  9 16  4  0
 10 12  3  0
 10 13  1  0
 10 14  4  0
 10 16  2  0
 10 17  3  0
 12 15  1  0
 13 16  3  0
 14 15  4  0
 15 16  3  0
M  END
$$$$

 Created by Python create_sdf_string function

 34  2  0  0  0  0  0  0  0  0999 V2000
    9.7617   -5.2554   16.9741 C   0  0  0  0  0  0  0  0  0  0  0  0
    4.7336   -7.8557   16.6331 C   0  0  0  0  0  0  0  0  0  0  0  0
    9.2866   -5.7996   17.1954 C   0  0  0  0  0  0  0  0  0  0  0  0
    4.6602   -8.6727   16.9724 C   0  0  0  0  0  0  0  0  0  0  0  0
    5.7037   -8.6280   16.7567 C   0  0  0  0  0  0  0  0  0  0  0  0
    4.3337   -8.0282   15.4172 C   0  0  0  0  0  0  0  0  0  0  0  0
   10.7472   -4.3965   20.6951 C   0  0  0  0  0  0  0  0  0  0  0  0
   10.4687   -5.1333   19.5462 C   0  0  0  0  0  0  0  0  0  0  0  0
    7.7388   -6.8684   16.2139 C   0  0  0  0  0  0  0  0  0  0  0  0
    2.4110   -8.7589   16.0754 C   0  0  0  0  0  0  0  0  0  0  0  0
    6.9471   -6.7282   18.2611 F   0  0  0  0  0  0  0  0  0  0  0  0
    2.5367  -10.0497   17.5089 C   0  0  0  0  0  0  0  0  0  0  0  0
   11.5581   -3.3671   16.5083 C   0  0  0  0  0  0  0  0  0  0  0  0
   11.3581   -3.2162   17.5731 C   0  0  0  0  0  0  0  0  0  0  0  0
   10.0496   -5.1954   18.8415 C   0  0  0  0  0  0  0  0  0  0  0  0
    2.9986  -10.9951   18.4254 C   0  0  0  0  0  0  0  0  0  0  0  0
    3.5501  -10.6800   18.2362 C   0  0  0  0  0  0  0  0  0  0  0  0
    5.7868   -9.1231   17.1513 C   0  0  0  0  0  0  0  0  0  0  0  0
    8.3112   -6.4340   17.8586 C   0  0  0  0  0  0  0  0  0  0  0  0
    8.9510   -8.0799   15.7532 F   0  0  0  0  0  0  0  0  0  0  0  0
    2.5963  -10.6202   18.0497 C   0  0  0  0  0  0  0  0  0  0  0  0
    3.6637  -11.3618   18.8329 C   0  0  0  0  0  0  0  0  0  0  0  0
   10.9830   -3.8476   19.7995 C   0  0  0  0  0  0  0  0  0  0  0  0
    6.6760   -6.9161   17.2499 C   0  0  0  0  0  0  0  0  0  0  0  0
   12.2029   -2.2547   16.8237 O   0  0  0  0  0  0  0  0  0  0  0  0
    9.3890   -4.3614   16.1362 C   0  0  0  0  0  0  0  0  0  0  0  0
    7.0890   -9.3878   16.0077 O   0  0  0  0  0  0  0  0  0  0  0  0
    9.7850   -6.3030   18.2380 F   0  0  0  0  0  0  0  0  0  0  0  0
    8.0110   -8.2208   17.0526 C   0  0  0  0  0  0  0  0  0  0  0  0
    3.8300   -9.7461   17.5718 C   0  0  0  0  0  0  0  0  0  0  0  0
    3.4563   -7.6975   15.6542 C   0  0  0  0  0  0  0  0  0  0  0  0
   11.1416   -3.6503   17.0101 C   0  0  0  0  0  0  0  0  0  0  0  0
    8.4069   -8.5654   17.1551 F   0  0  0  0  0  0  0  0  0  0  0  0
   10.1290   -4.2485   20.0725 C   0  0  0  0  0  0  0  0  0  0  0  0
 17 22  4  0
 29 33  1  0
M  END
$$$$

 Created by Python create_sdf_string function

 34 74  0  0  0  0  0  0  0  0999 V2000
    9.4871   -5.5265   16.4567 B   0  0  0  0  0  0  0  0  0  0  0  0
    4.0806   -8.7269   16.1078 S   0  0  0  0  0  0  0  0  0  0  0  0
   11.6121   -7.3018   22.2298 F   0  0  0  0  0  0  0  0  0  0  0  0
   10.7873   -3.8313   19.7079 C   0  0  0  0  0  0  0  0  0  0  0  0
    8.6486   -6.2485   16.0131 O   0  0  0  0  0  0  0  0  0  0  0  0
    4.0825   -8.5194   15.1367 C   0  0  0  0  0  0  0  0  0  0  0  0
    6.3910   -6.7526   17.7167 F   0  0  0  0  0  0  0  0  0  0  0  0
    3.3898   -7.8307   17.7415 O   0  0  0  0  0  0  0  0  0  0  0  0
   11.3455   -6.1974   19.2848 F   0  0  0  0  0  0  0  0  0  0  0  0
    3.5842   -9.7299   18.2786 F   0  0  0  0  0  0  0  0  0  0  0  0
    3.7918   -9.7096   17.9024 N   0  0  0  0  0  0  0  0  0  0  0  0
    7.5909   -8.5577   18.5503 N   0  0  0  0  0  0  0  0  0  0  0  0
   11.3147   -3.9638   21.0735 P   0  0  0  0  0  0  0  0  0  0  0  0
    8.6007   -8.2251   16.6545 C   0  0  0  0  0  0  0  0  0  0  0  0
   10.7765   -4.1046   15.1419 S   0  0  0  0  0  0  0  0  0  0  0  0
    7.3273  -10.1345   15.8625 O   0  0  0  0  0  0  0  0  0  0  0  0
   11.7249   -6.8570   18.2340 N   0  0  0  0  0  0  0  0  0  0  0  0
   11.8135   -5.3428   15.2093 O   0  0  0  0  0  0  0  0  0  0  0  0
    9.9327   -2.8522   20.8134 P   0  0  0  0  0  0  0  0  0  0  0  0
    3.8333   -9.2283   16.7440 He  0  0  0  0  0  0  0  0  0  0  0  0
    9.2014   -7.0859   16.8477 He  0  0  0  0  0  0  0  0  0  0  0  0
    3.7193   -9.2382   16.4144 He  0  0  0  0  0  0  0  0  0  0  0  0
    4.5133   -7.3276   16.9427 He  0  0  0  0  0  0  0  0  0  0  0  0
   11.2572   -3.6863   16.6015 He  0  0  0  0  0  0  0  0  0  0  0  0
   12.3231   -2.1944   15.9642 He  0  0  0  0  0  0  0  0  0  0  0  0
    5.2130   -8.6359   18.7883 He  0  0  0  0  0  0  0  0  0  0  0  0
    9.2498   -7.8448   15.0212 He  0  0  0  0  0  0  0  0  0  0  0  0
    4.2850  -10.0855   17.9921 He  0  0  0  0  0  0  0  0  0  0  0  0
    4.7207  -12.4206   18.8839 He  0  0  0  0  0  0  0  0  0  0  0  0
   10.6409   -4.9905   15.8524 He  0  0  0  0  0  0  0  0  0  0  0  0
    8.8606   -8.9876   15.9571 He  0  0  0  0  0  0  0  0  0  0  0  0
    3.8394   -9.1411   16.4580 He  0  0  0  0  0  0  0  0  0  0  0  0
    3.4866   -7.3942   16.3974 He  0  0  0  0  0  0  0  0  0  0  0  0
    7.3979   -7.5407   17.7621 He  0  0  0  0  0  0  0  0  0  0  0  0
  1  4  2  0
  1  5  3  0
  1 13  3  0
  1 15  3  0
  1 17  3  0
  1 19  4  0
  2  3  4  0
  2  4  4  0
  2  6  2  0
  2  7  4  0
  2 10  3  0
  2 14  3  0
  2 15  2  0
  2 19  1  0
  3  5  4  0
  3  8  3  0
  3 13  2  0
  3 16  4  0
  3 18  2  0
  4  7  2  0
  4  9  2  0
  4 15  2  0
  4 18  3  0
  4 19  3  0
  5  7  4  0
  5  8  3  0
  5 10  3  0
  5 11  4  0
  5 13  4  0
  5 14  1  0
  5 16  2  0
  5 17  2  0
  5 18  3  0
  5 19  2  0
  6  8  2  0
  6  9  3  0
  6 15  4  0
  6 16  2  0
  6 19  3  0
  7  8  3  0
  7  9  4  0
  7 10  4  0
  7 13  3  0
  7 14  3  0
  7 16  2  0
  7 17  4  0
  8  9  2  0
  8 14  3  0
  8 16  4  0
  8 17  4  0
  8 18  4  0
  8 19  2  0
  9 15  3  0
  9 16  3  0
  9 17  1  0
 10 12  2  0
 10 19  4  0
 11 14  1  0
 11 16  3  0
 11 17  1  0
 11 18  3  0
 11 19  3  0
 12 13  4  0
 12 18  3  0
 12 19  1  0
 13 15  1  0
 13 16  4  0
 13 17  4  0
 14 16  1  0
 14 17  4  0
 14 19  1  0
 16 19  2  0
 17 18  3  0
 18 19  3  0
M  END
$$$$

 Created by Python create_sdf_string function

 34  3  0  0  0  0  0  0  0  0999 V2000
    9.5623   -5.3610   16.8768 C   0  0  0  0  0  0  0  0  0  0  0  0
    3.6999   -9.1195   16.8442 C   0  0  0  0  0  0  0  0  0  0  0  0
    9.0740   -6.8997   17.3455 C   0  0  0  0  0  0  0  0  0  0  0  0
    3.3489   -8.9771   16.3459 C   0  0  0  0  0  0  0  0  0  0  0  0
    3.9352   -8.5921   15.9943 C   0  0  0  0  0  0  0  0  0  0  0  0
    4.9445   -7.5312   16.6350 F   0  0  0  0  0  0  0  0  0  0  0  0
   10.8833   -5.4034   21.0220 C   0  0  0  0  0  0  0  0  0  0  0  0
   10.8432   -4.1132   19.4513 C   0  0  0  0  0  0  0  0  0  0  0  0
    8.4770   -6.1923   16.3521 C   0  0  0  0  0  0  0  0  0  0  0  0
    4.0889   -8.4927   15.4304 C   0  0  0  0  0  0  0  0  0  0  0  0
    6.5813   -7.0742   17.6671 F   0  0  0  0  0  0  0  0  0  0  0  0
    3.7742   -8.1113   17.0772 C   0  0  0  0  0  0  0  0  0  0  0  0
   11.0207   -3.7751   17.2378 C   0  0  0  0  0  0  0  0  0  0  0  0
   11.8054   -3.2054   16.3661 C   0  0  0  0  0  0  0  0  0  0  0  0
   10.5626   -5.6705   19.2095 C   0  0  0  0  0  0  0  0  0  0  0  0
    3.3594  -10.2156   18.0019 C   0  0  0  0  0  0  0  0  0  0  0  0
    3.6528   -9.9448   17.8009 C   0  0  0  0  0  0  0  0  0  0  0  0
    5.5492   -8.8074   18.2999 F   0  0  0  0  0  0  0  0  0  0  0  0
    7.5431   -8.1096   18.0262 F   0  0  0  0  0  0  0  0  0  0  0  0
    8.4972   -7.8686   15.5881 F   0  0  0  0  0  0  0  0  0  0  0  0
    4.1901  -10.2255   18.0114 C   0  0  0  0  0  0  0  0  0  0  0  0
    3.8573  -11.1422   18.6860 C   0  0  0  0  0  0  0  0  0  0  0  0
   11.0698   -4.2294   20.7673 C   0  0  0  0  0  0  0  0  0  0  0  0
    8.2782   -7.9076   16.7292 C   0  0  0  0  0  0  0  0  0  0  0  0
   10.3783   -4.4953   16.5509 C   0  0  0  0  0  0  0  0  0  0  0  0
   10.6936   -3.9406   15.9509 C   0  0  0  0  0  0  0  0  0  0  0  0
    7.1936   -9.0796   15.8055 F   0  0  0  0  0  0  0  0  0  0  0  0
   10.4088   -6.0881   18.7506 C   0  0  0  0  0  0  0  0  0  0  0  0
    8.1119   -8.2913   16.0677 C   0  0  0  0  0  0  0  0  0  0  0  0
    3.6934   -8.9413   16.4841 C   0  0  0  0  0  0  0  0  0  0  0  0
    3.6223   -7.6176   16.0503 F   0  0  0  0  0  0  0  0  0  0  0  0
   11.2244   -4.1752   16.0328 C   0  0  0  0  0  0  0  0  0  0  0  0
    7.4800   -7.4927   17.6714 C   0  0  0  0  0  0  0  0  0  0  0  0
   10.7386   -3.8443   20.6518 C   0  0  0  0  0  0  0  0  0  0  0  0
 15 28  4  0
 21 22  4  0
 23 34  4  0
M  END
$$$$

 Created by Python create_sdf_string function

 34 78  0  0  0  0  0  0  0  0999 V2000
   10.5161   -5.6360   17.1298 C   0  0  0  0  0  0  0  0  0  0  0  0
    3.3066   -9.1635   16.1423 C   0  0  0  0  0  0  0  0  0  0  0  0
    9.4539   -7.1478   17.3224 C   0  0  0  0  0  0  0  0  0  0  0  0
    2.7947   -8.8702   15.8095 O   0  0  0  0  0  0  0  0  0  0  0  0
   11.0636   -7.0098   21.9128 C   0  0  0  0  0  0  0  0  0  0  0  0
   10.0545   -4.9087   18.7450 P   0  0  0  0  0  0  0  0  0  0  0  0
    4.9903   -8.6465   15.5083 F   0  0  0  0  0  0  0  0  0  0  0  0
    6.7528   -6.6882   16.6411 P   0  0  0  0  0  0  0  0  0  0  0  0
    9.8937   -3.0814   17.0219 S   0  0  0  0  0  0  0  0  0  0  0  0
   11.4043   -4.0847   19.7902 O   0  0  0  0  0  0  0  0  0  0  0  0
    4.8326  -10.4008   16.6309 N   0  0  0  0  0  0  0  0  0  0  0  0
    5.5803   -8.0625   18.7251 Br  0  0  0  0  0  0  0  0  0  0  0  0
    8.8679   -8.1804   16.0490 B   0  0  0  0  0  0  0  0  0  0  0  0
    4.9388  -10.1430   18.2991 P   0  0  0  0  0  0  0  0  0  0  0  0
   11.4646   -5.1641   16.3322 N   0  0  0  0  0  0  0  0  0  0  0  0
    6.1999   -8.7799   16.2549 F   0  0  0  0  0  0  0  0  0  0  0  0
    4.1120   -9.5389   16.3011 B   0  0  0  0  0  0  0  0  0  0  0  0
    2.8893   -7.1039   17.7154 C   0  0  0  0  0  0  0  0  0  0  0  0
   12.3200   -3.9281   15.6260 C   0  0  0  0  0  0  0  0  0  0  0  0
    8.8494   -7.4796   17.6447 F   0  0  0  0  0  0  0  0  0  0  0  0
   10.9728   -4.4519   19.8623 C   0  0  0  0  0  0  0  0  0  0  0  0
    3.5330   -9.1823   16.7000 He  0  0  0  0  0  0  0  0  0  0  0  0
    6.1246   -6.7537   17.8709 He  0  0  0  0  0  0  0  0  0  0  0  0
    8.9170   -6.4902   17.3404 He  0  0  0  0  0  0  0  0  0  0  0  0
    2.8697   -9.9238   15.1980 He  0  0  0  0  0  0  0  0  0  0  0  0
   10.1994   -4.7014   16.9213 He  0  0  0  0  0  0  0  0  0  0  0  0
    3.3007  -10.2100   17.7896 He  0  0  0  0  0  0  0  0  0  0  0  0
    8.5303   -7.7958   18.1458 He  0  0  0  0  0  0  0  0  0  0  0  0
    2.9632  -11.2339   17.8663 He  0  0  0  0  0  0  0  0  0  0  0  0
    8.6279   -3.9608   19.6898 He  0  0  0  0  0  0  0  0  0  0  0  0
    8.0372   -9.6060   16.2680 He  0  0  0  0  0  0  0  0  0  0  0  0
    9.7664   -4.6787   16.3042 He  0  0  0  0  0  0  0  0  0  0  0  0
    9.4598   -4.8895   19.2564 He  0  0  0  0  0  0  0  0  0  0  0  0
    8.9926   -8.0448   15.6314 He  0  0  0  0  0  0  0  0  0  0  0  0
  1  3  1  0
  1  5  2  0
  1  8  2  0
  1 10  1  0
  1 12  4  0
  1 14  2  0
  1 20  2  0
  1 21  4  0
  2  4  2  0
  2  5  1  0
  2  7  3  0
  2 11  3  0
  2 16  4  0
  2 17  2  0
  2 18  1  0
  2 19  4  0
  2 21  2  0
  3  5  2  0
  3 11  2  0
  3 19  4  0
  3 20  4  0
  4  7  2  0
  4 10  4  0
  4 11  1  0
  4 13  4  0
  4 17  3  0
  5  6  4  0
  5 11  3  0
  5 14  3  0
  5 15  2  0
  5 21  3  0
  6  7  1  0
  6 14  2  0
  6 15  3  0
  6 17  3  0
  6 18  4  0
  6 19  1  0
  6 20  3  0
  7 10  3  0
  7 12  4  0
  7 14  3  0
  7 15  1  0
  7 17  4  0
  8 10  3  0
  8 11  2  0
  8 13  3  0
  8 15  4  0
  8 21  1  0
  9 16  3  0
  9 20  1  0
 10 11  2  0
 10 16  2  0
 10 19  4  0
 11 15  4  0
 11 16  2  0
 12 15  4  0
 12 20  3  0
 13 15  1  0
 13 16  1  0
 13 17  2  0
 13 18  3  0
 13 19  2  0
 13 20  4  0
 14 15  4  0
 14 16  1  0
 14 18  4  0
 14 19  2  0
 14 21  3  0
 15 16  4  0
 15 17  3  0
 15 19  2  0
 15 20  3  0
 16 18  4  0
 16 20  1  0
 17 21  1  0
 18 19  3  0
 18 21  4  0
 19 20  3  0
M  END
$$$$

 Created by Python create_sdf_string function

 34  1  0  0  0  0  0  0  0  0999 V2000
   10.2700   -5.3830   17.6153 C   0  0  0  0  0  0  0  0  0  0  0  0
    3.0653   -9.1274   16.3612 C   0  0  0  0  0  0  0  0  0  0  0  0
    9.2532   -6.9464   17.6401 F   0  0  0  0  0  0  0  0  0  0  0  0
    3.4924   -9.2236   16.8383 C   0  0  0  0  0  0  0  0  0  0  0  0
    2.6257   -8.9395   15.8399 C   0  0  0  0  0  0  0  0  0  0  0  0
    6.4543   -7.1592   17.7120 F   0  0  0  0  0  0  0  0  0  0  0  0
   10.7516   -5.3719   20.9235 F   0  0  0  0  0  0  0  0  0  0  0  0
   10.4029   -4.9349   18.9153 C   0  0  0  0  0  0  0  0  0  0  0  0
    8.8742   -6.4840   17.4974 C   0  0  0  0  0  0  0  0  0  0  0  0
    4.9740   -8.7156   15.7909 F   0  0  0  0  0  0  0  0  0  0  0  0
    6.7486   -6.8817   16.5401 F   0  0  0  0  0  0  0  0  0  0  0  0
    2.5634   -9.2777   15.6073 C   0  0  0  0  0  0  0  0  0  0  0  0
   10.4226   -3.4568   16.9145 C   0  0  0  0  0  0  0  0  0  0  0  0
   10.3355   -4.3571   17.0073 C   0  0  0  0  0  0  0  0  0  0  0  0
   11.1939   -3.9497   19.9473 C   0  0  0  0  0  0  0  0  0  0  0  0
    4.7904   -9.9236   16.9173 F   0  0  0  0  0  0  0  0  0  0  0  0
    3.2518  -10.1889   17.8094 C   0  0  0  0  0  0  0  0  0  0  0  0
    5.9777   -8.1735   18.2052 F   0  0  0  0  0  0  0  0  0  0  0  0
    8.3413   -7.7340   17.9748 F   0  0  0  0  0  0  0  0  0  0  0  0
    8.2339   -8.1825   16.1212 C   0  0  0  0  0  0  0  0  0  0  0  0
    3.0323  -10.7939   18.2721 C   0  0  0  0  0  0  0  0  0  0  0  0
    4.5847  -10.0068   18.1618 F   0  0  0  0  0  0  0  0  0  0  0  0
    9.5806   -4.1925   20.0934 F   0  0  0  0  0  0  0  0  0  0  0  0
    7.6115   -8.7280   16.1543 F   0  0  0  0  0  0  0  0  0  0  0  0
   11.1482   -4.3795   16.6497 C   0  0  0  0  0  0  0  0  0  0  0  0
    9.7669   -4.3730   16.3787 F   0  0  0  0  0  0  0  0  0  0  0  0
    6.2528   -8.5447   16.3970 C   0  0  0  0  0  0  0  0  0  0  0  0
    9.9339   -4.9927   19.3051 C   0  0  0  0  0  0  0  0  0  0  0  0
    8.4156   -7.9824   15.7174 F   0  0  0  0  0  0  0  0  0  0  0  0
    3.9380   -9.2194   16.4391 C   0  0  0  0  0  0  0  0  0  0  0  0
    3.4344   -7.7708   16.7407 F   0  0  0  0  0  0  0  0  0  0  0  0
   11.6074   -3.6437   15.9162 F   0  0  0  0  0  0  0  0  0  0  0  0
    8.6907   -7.6277   17.7343 F   0  0  0  0  0  0  0  0  0  0  0  0
   10.8825   -4.4614   19.9849 C   0  0  0  0  0  0  0  0  0  0  0  0
 20 24  1  0
M  END
$$$$

 Created by Python create_sdf_string function

 34 18  0  0  0  0  0  0  0  0999 V2000
    9.0880   -5.5482   18.0585 Se  0  0  0  0  0  0  0  0  0  0  0  0
    8.4694   -6.9543   16.8954 Br  0  0  0  0  0  0  0  0  0  0  0  0
    2.5252  -10.3650   16.4642 C   0  0  0  0  0  0  0  0  0  0  0  0
    5.8323   -5.1051   18.6483 N   0  0  0  0  0  0  0  0  0  0  0  0
    9.8615   -4.9409   21.5068 F   0  0  0  0  0  0  0  0  0  0  0  0
    9.1916   -6.3816   18.2284 C   0  0  0  0  0  0  0  0  0  0  0  0
   11.5991   -2.0038   15.8017 Cl  0  0  0  0  0  0  0  0  0  0  0  0
    3.1141  -10.7956   18.1248 O   0  0  0  0  0  0  0  0  0  0  0  0
    9.6314   -8.3516   18.3750 F   0  0  0  0  0  0  0  0  0  0  0  0
    3.2954   -8.9588   18.6650 O   0  0  0  0  0  0  0  0  0  0  0  0
   11.7468   -4.8150   16.4774 F   0  0  0  0  0  0  0  0  0  0  0  0
   11.8505   -3.3961   15.7795 C   0  0  0  0  0  0  0  0  0  0  0  0
    2.2579  -10.7760   16.4244 He  0  0  0  0  0  0  0  0  0  0  0  0
    3.8594   -7.4896   16.8868 He  0  0  0  0  0  0  0  0  0  0  0  0
   10.7452   -4.6619   19.7161 He  0  0  0  0  0  0  0  0  0  0  0  0
    5.8580   -8.9099   16.6758 He  0  0  0  0  0  0  0  0  0  0  0  0
    5.5250   -6.4669   16.4950 He  0  0  0  0  0  0  0  0  0  0  0  0
    3.5425   -9.0833   16.6699 He  0  0  0  0  0  0  0  0  0  0  0  0
   11.9451   -3.1259   18.5899 He  0  0  0  0  0  0  0  0  0  0  0  0
   11.6140   -7.0283   21.4826 He  0  0  0  0  0  0  0  0  0  0  0  0
    3.8011   -9.9620   17.1230 He  0  0  0  0  0  0  0  0  0  0  0  0
    7.0985   -7.9883   18.9156 He  0  0  0  0  0  0  0  0  0  0  0  0
    8.6596   -9.3066   16.7612 He  0  0  0  0  0  0  0  0  0  0  0  0
    2.9723  -11.6167   18.3085 He  0  0  0  0  0  0  0  0  0  0  0  0
    9.1334   -4.7019   19.5434 He  0  0  0  0  0  0  0  0  0  0  0  0
    9.4931   -8.9083   15.1606 He  0  0  0  0  0  0  0  0  0  0  0  0
   10.6178   -2.8559   16.8146 He  0  0  0  0  0  0  0  0  0  0  0  0
    5.9846   -7.9858   16.1270 He  0  0  0  0  0  0  0  0  0  0  0  0
   10.0893   -2.7066   19.0619 He  0  0  0  0  0  0  0  0  0  0  0  0
    7.8321   -8.5891   15.9911 He  0  0  0  0  0  0  0  0  0  0  0  0
    2.5305   -8.4287   15.6761 He  0  0  0  0  0  0  0  0  0  0  0  0
    4.5337   -8.9220   17.4062 He  0  0  0  0  0  0  0  0  0  0  0  0
   10.1181   -6.1744   18.0236 He  0  0  0  0  0  0  0  0  0  0  0  0
   11.0582   -4.4554   19.2428 He  0  0  0  0  0  0  0  0  0  0  0  0
  1  2  4  0
  1  3  3  0
  1  7  1  0
  1 11  3  0
  2  5  1  0
  3  7  4  0
  3  8  2  0
  3 10  3  0
  3 12  1  0
  4 11  3  0
  5 10  2  0
  5 12  4  0
  6  7  1  0
  7 10  4  0
  8  9  2  0
  9 10  2  0
 10 11  2  0
 11 12  2  0
M  END
$$$$

 Created by Python create_sdf_string function

 34  2  0  0  0  0  0  0  0  0999 V2000
    9.4181   -5.6653   17.8909 C   0  0  0  0  0  0  0  0  0  0  0  0
    1.6848  -10.1745   17.1769 C   0  0  0  0  0  0  0  0  0  0  0  0
    8.3702   -6.8866   16.8855 C   0  0  0  0  0  0  0  0  0  0  0  0
    4.2019   -7.9638   16.5093 C   0  0  0  0  0  0  0  0  0  0  0  0
    1.9934   -9.9842   17.1114 C   0  0  0  0  0  0  0  0  0  0  0  0
    6.7400   -6.3201   18.2745 F   0  0  0  0  0  0  0  0  0  0  0  0
   10.6105   -4.3021   21.0394 C   0  0  0  0  0  0  0  0  0  0  0  0
   10.8803   -4.5411   19.7322 C   0  0  0  0  0  0  0  0  0  0  0  0
    9.1972   -6.4409   18.0286 C   0  0  0  0  0  0  0  0  0  0  0  0
    6.0495   -8.7094   16.7065 C   0  0  0  0  0  0  0  0  0  0  0  0
    5.9208   -7.0851   16.4572 F   0  0  0  0  0  0  0  0  0  0  0  0
    3.5350   -8.9872   16.7647 C   0  0  0  0  0  0  0  0  0  0  0  0
   11.9262   -3.0413   16.0847 C   0  0  0  0  0  0  0  0  0  0  0  0
   11.2758   -3.2883   18.2870 C   0  0  0  0  0  0  0  0  0  0  0  0
   10.8886   -5.4974   20.7082 C   0  0  0  0  0  0  0  0  0  0  0  0
    2.7357  -10.9486   18.4067 C   0  0  0  0  0  0  0  0  0  0  0  0
    3.5525   -9.7521   17.4367 C   0  0  0  0  0  0  0  0  0  0  0  0
    7.1462   -7.9638   18.1251 F   0  0  0  0  0  0  0  0  0  0  0  0
    9.3462   -7.8044   18.0752 F   0  0  0  0  0  0  0  0  0  0  0  0
    8.3656   -8.4411   16.6582 C   0  0  0  0  0  0  0  0  0  0  0  0
    2.4936  -11.1834   18.5758 C   0  0  0  0  0  0  0  0  0  0  0  0
    3.8288  -10.0840   17.9642 C   0  0  0  0  0  0  0  0  0  0  0  0
    9.7324   -4.7691   19.3532 C   0  0  0  0  0  0  0  0  0  0  0  0
    8.5681   -8.2720   15.5628 F   0  0  0  0  0  0  0  0  0  0  0  0
   11.2485   -4.2471   16.7748 C   0  0  0  0  0  0  0  0  0  0  0  0
   10.9303   -3.5676   16.8335 C   0  0  0  0  0  0  0  0  0  0  0  0
    6.1430   -8.0882   16.2320 C   0  0  0  0  0  0  0  0  0  0  0  0
   10.8160   -3.3547   19.0215 C   0  0  0  0  0  0  0  0  0  0  0  0
    7.6740   -8.2498   16.1315 C   0  0  0  0  0  0  0  0  0  0  0  0
    2.6381   -8.8811   16.1210 C   0  0  0  0  0  0  0  0  0  0  0  0
    4.6830   -8.9040   17.3017 C   0  0  0  0  0  0  0  0  0  0  0  0
   11.6711   -3.5577   16.1326 C   0  0  0  0  0  0  0  0  0  0  0  0
    9.9803   -6.0059   18.1615 C   0  0  0  0  0  0  0  0  0  0  0  0
   11.0062   -4.4895   19.1288 C   0  0  0  0  0  0  0  0  0  0  0  0
  2  5  4  0
 16 21  4  0
M  END
$$$$

 Created by Python create_sdf_string function

 34 43  0  0  0  0  0  0  0  0999 V2000
    9.2562   -5.0302   16.2644 F   0  0  0  0  0  0  0  0  0  0  0  0
    1.6197  -11.9574   16.6914 Br  0  0  0  0  0  0  0  0  0  0  0  0
    3.3610   -9.1429   17.5546 C   0  0  0  0  0  0  0  0  0  0  0  0
    8.5241   -6.7396   17.7209 Cl  0  0  0  0  0  0  0  0  0  0  0  0
    9.4138   -5.6070   18.7172 Cl  0  0  0  0  0  0  0  0  0  0  0  0
    3.5671   -8.6695   18.0556 C   0  0  0  0  0  0  0  0  0  0  0  0
    1.1586  -10.8274   17.8459 O   0  0  0  0  0  0  0  0  0  0  0  0
    4.0932  -10.6552   16.7444 Cl  0  0  0  0  0  0  0  0  0  0  0  0
    9.3437   -8.4816   18.5597 F   0  0  0  0  0  0  0  0  0  0  0  0
    8.0547   -7.3932   17.0886 N   0  0  0  0  0  0  0  0  0  0  0  0
    2.7722  -11.3530   17.2674 P   0  0  0  0  0  0  0  0  0  0  0  0
    8.8972   -8.3007   16.3617 Cl  0  0  0  0  0  0  0  0  0  0  0  0
    7.4134   -7.1459   16.3342 B   0  0  0  0  0  0  0  0  0  0  0  0
    5.8492   -8.3230   16.7297 S   0  0  0  0  0  0  0  0  0  0  0  0
   11.6772   -3.5645   19.9022 F   0  0  0  0  0  0  0  0  0  0  0  0
    9.0135   -6.8963   15.7227 He  0  0  0  0  0  0  0  0  0  0  0  0
    0.5194   -9.8658   16.0579 He  0  0  0  0  0  0  0  0  0  0  0  0
    9.0079   -4.1805   22.4172 He  0  0  0  0  0  0  0  0  0  0  0  0
   11.1255   -4.6321   18.6600 He  0  0  0  0  0  0  0  0  0  0  0  0
    4.9382   -7.9007   17.0196 He  0  0  0  0  0  0  0  0  0  0  0  0
    6.2440   -9.0484   18.2591 He  0  0  0  0  0  0  0  0  0  0  0  0
   12.3662   -3.9021   16.0355 He  0  0  0  0  0  0  0  0  0  0  0  0
   10.5969   -3.2723   17.4873 He  0  0  0  0  0  0  0  0  0  0  0  0
   10.9260   -6.7351   20.8921 He  0  0  0  0  0  0  0  0  0  0  0  0
    6.8677   -8.3874   17.8899 He  0  0  0  0  0  0  0  0  0  0  0  0
    3.0102  -11.0712   17.8978 He  0  0  0  0  0  0  0  0  0  0  0  0
   10.8183   -4.8825   19.4900 He  0  0  0  0  0  0  0  0  0  0  0  0
   10.9510   -4.1950   18.0007 He  0  0  0  0  0  0  0  0  0  0  0  0
   11.4967   -3.4886   17.5066 He  0  0  0  0  0  0  0  0  0  0  0  0
   11.0674   -3.0436   18.4143 He  0  0  0  0  0  0  0  0  0  0  0  0
    6.4926   -7.0912   16.0692 He  0  0  0  0  0  0  0  0  0  0  0  0
    3.5617   -8.9855   16.0599 He  0  0  0  0  0  0  0  0  0  0  0  0
   12.3026   -3.2001   15.9711 He  0  0  0  0  0  0  0  0  0  0  0  0
    9.5106   -8.7251   18.0988 He  0  0  0  0  0  0  0  0  0  0  0  0
  1  2  3  0
  1  5  2  0
  1  6  2  0
  1  7  3  0
  1  9  2  0
  1 10  4  0
  1 12  3  0
  1 13  3  0
  2  3  2  0
  2  6  3  0
  2 10  2  0
  2 14  4  0
  2 15  3  0
  3  4  3  0
  3  6  3  0
  3  7  1  0
  3 10  3  0
  4  5  2  0
  4  6  4  0
  4 13  2  0
  5  6  2  0
  5  9  2  0
  5 11  3  0
  5 12  2  0
  6  7  3  0
  6  9  4  0
  6 10  1  0
  6 11  3  0
  6 15  3  0
  7  8  1  0
  7  9  3  0
  7 12  3  0
  7 14  1  0
  8  9  4  0
  8 13  3  0
  8 14  1  0
  9 10  2  0
  9 11  2  0
 10 13  3  0
 10 14  2  0
 11 14  3  0
 12 13  3  0
 13 15  4  0
M  END
$$$$

 Created by Python create_sdf_string function

 34  2  0  0  0  0  0  0  0  0999 V2000
    9.4304   -4.8486   16.4160 C   0  0  0  0  0  0  0  0  0  0  0  0
    0.8954  -10.8019   17.6015 C   0  0  0  0  0  0  0  0  0  0  0  0
    8.5082   -6.7288   16.0559 F   0  0  0  0  0  0  0  0  0  0  0  0
    3.0716   -9.5333   17.1769 C   0  0  0  0  0  0  0  0  0  0  0  0
    0.9148   -9.8609   16.7098 C   0  0  0  0  0  0  0  0  0  0  0  0
    8.8081   -6.5682   17.7378 C   0  0  0  0  0  0  0  0  0  0  0  0
   10.6122   -4.0895   21.5012 O   0  0  0  0  0  0  0  0  0  0  0  0
   10.8544   -4.5089   18.8693 C   0  0  0  0  0  0  0  0  0  0  0  0
    9.7594   -5.6829   18.6373 C   0  0  0  0  0  0  0  0  0  0  0  0
    4.7532   -8.2800   16.8437 C   0  0  0  0  0  0  0  0  0  0  0  0
    6.0869   -8.6436   18.0223 C   0  0  0  0  0  0  0  0  0  0  0  0
    3.7399   -9.2490   17.2431 C   0  0  0  0  0  0  0  0  0  0  0  0
   11.7992   -3.5514   15.9493 C   0  0  0  0  0  0  0  0  0  0  0  0
   10.8999   -3.6073   17.1735 C   0  0  0  0  0  0  0  0  0  0  0  0
   10.4922   -5.6416   20.2960 C   0  0  0  0  0  0  0  0  0  0  0  0
    0.9404  -10.7304   17.9065 C   0  0  0  0  0  0  0  0  0  0  0  0
    3.9482   -9.9450   17.5000 C   0  0  0  0  0  0  0  0  0  0  0  0
    6.7376   -8.2858   17.7057 F   0  0  0  0  0  0  0  0  0  0  0  0
    9.1253   -7.7641   18.3006 F   0  0  0  0  0  0  0  0  0  0  0  0
    7.9059   -7.2140   16.9820 C   0  0  0  0  0  0  0  0  0  0  0  0
    2.2117  -10.6777   18.0345 C   0  0  0  0  0  0  0  0  0  0  0  0
    2.5285  -10.7398   18.1621 C   0  0  0  0  0  0  0  0  0  0  0  0
   10.6777   -4.6630   19.7927 C   0  0  0  0  0  0  0  0  0  0  0  0
    8.4526   -8.1304   16.2448 F   0  0  0  0  0  0  0  0  0  0  0  0
   10.8649   -4.1646   17.8908 C   0  0  0  0  0  0  0  0  0  0  0  0
   11.3447   -3.4594   17.1951 C   0  0  0  0  0  0  0  0  0  0  0  0
    7.2322   -7.0840   16.2733 C   0  0  0  0  0  0  0  0  0  0  0  0
   11.1293   -3.2806   18.3882 C   0  0  0  0  0  0  0  0  0  0  0  0
    6.4308   -7.1445   16.1379 F   0  0  0  0  0  0  0  0  0  0  0  0
    3.0805   -8.8690   16.4579 C   0  0  0  0  0  0  0  0  0  0  0  0
    5.5871   -8.3206   16.8031 C   0  0  0  0  0  0  0  0  0  0  0  0
   12.0016   -3.2806   15.8132 C   0  0  0  0  0  0  0  0  0  0  0  0
    9.1213   -8.0544   17.9410 F   0  0  0  0  0  0  0  0  0  0  0  0
   11.1886   -3.7670   20.2461 C   0  0  0  0  0  0  0  0  0  0  0  0
 13 32  4  0
 19 33  1  0
M  END
$$$$

 Created by Python create_sdf_string function

 34 56  0  0  0  0  0  0  0  0999 V2000
   -0.6393   -7.5609   18.8285 O   0  0  0  0  0  0  0  0  0  0  0  0
    8.9135   -5.0642   16.5735 C   0  0  0  0  0  0  0  0  0  0  0  0
   10.4211   -4.3446   19.1005 N   0  0  0  0  0  0  0  0  0  0  0  0
    8.8386   -5.5647   19.2235 C   0  0  0  0  0  0  0  0  0  0  0  0
    4.6036   -8.1382   15.3527 N   0  0  0  0  0  0  0  0  0  0  0  0
    9.5750   -2.9826   16.9568 N   0  0  0  0  0  0  0  0  0  0  0  0
   10.1884   -5.5511   20.6554 O   0  0  0  0  0  0  0  0  0  0  0  0
    1.6423  -12.0135   18.5148 N   0  0  0  0  0  0  0  0  0  0  0  0
    7.9627   -8.0521   18.3896 O   0  0  0  0  0  0  0  0  0  0  0  0
    1.8391  -12.3609   18.2614 B   0  0  0  0  0  0  0  0  0  0  0  0
    1.7925  -10.5757   20.0490 P   0  0  0  0  0  0  0  0  0  0  0  0
    8.5528   -7.1906   15.1834 F   0  0  0  0  0  0  0  0  0  0  0  0
   11.6304   -1.8347   18.6112 C   0  0  0  0  0  0  0  0  0  0  0  0
    7.2251   -5.5025   14.4862 C   0  0  0  0  0  0  0  0  0  0  0  0
    2.0569  -10.3953   15.1451 F   0  0  0  0  0  0  0  0  0  0  0  0
    3.6484   -9.6414   17.7363 N   0  0  0  0  0  0  0  0  0  0  0  0
   11.5743   -2.8387   21.0651 S   0  0  0  0  0  0  0  0  0  0  0  0
   10.2964   -5.4956   16.8447 He  0  0  0  0  0  0  0  0  0  0  0  0
    0.6754  -10.9385   18.1398 He  0  0  0  0  0  0  0  0  0  0  0  0
    8.0993   -8.2292   16.3193 He  0  0  0  0  0  0  0  0  0  0  0  0
   -0.3796   -8.2968   16.9629 He  0  0  0  0  0  0  0  0  0  0  0  0
   11.2107   -4.2439   19.0749 He  0  0  0  0  0  0  0  0  0  0  0  0
    4.3450   -7.7279   18.3226 He  0  0  0  0  0  0  0  0  0  0  0  0
    4.2209   -9.8849   17.3464 He  0  0  0  0  0  0  0  0  0  0  0  0
   10.9229   -3.0385   15.3275 He  0  0  0  0  0  0  0  0  0  0  0  0
    2.5584  -10.4120   17.6432 He  0  0  0  0  0  0  0  0  0  0  0  0
    6.7429   -8.6596   18.1668 He  0  0  0  0  0  0  0  0  0  0  0  0
    7.2302   -5.5463   16.9783 He  0  0  0  0  0  0  0  0  0  0  0  0
   11.4756   -5.9382   18.9996 He  0  0  0  0  0  0  0  0  0  0  0  0
   12.0272   -5.8933   17.6216 He  0  0  0  0  0  0  0  0  0  0  0  0
   11.8609   -4.4380   17.8936 He  0  0  0  0  0  0  0  0  0  0  0  0
    5.2891   -7.3280   15.8629 He  0  0  0  0  0  0  0  0  0  0  0  0
   12.3046   -2.5587   15.7411 He  0  0  0  0  0  0  0  0  0  0  0  0
    9.4254   -6.5264   19.1255 He  0  0  0  0  0  0  0  0  0  0  0  0
  1  2  3  0
  1  6  2  0
  1  7  2  0
  1  8  3  0
  1 12  3  0
  1 15  3  0
  1 16  3  0
  2  3  1  0
  2  4  2  0
  2 10  1  0
  2 12  2  0
  2 13  1  0
  3  6  2  0
  3  9  3  0
  3 10  4  0
  3 12  3  0
  3 13  3  0
  3 14  4  0
  3 15  2  0
  4  6  4  0
  4  7  3  0
  4 13  3  0
  5  7  3  0
  5  9  4  0
  5 10  4  0
  5 11  4  0
  5 12  1  0
  5 14  4  0
  6  7  3  0
  6  8  2  0
  6 12  4  0
  6 13  4  0
  7 11  1  0
  7 12  4  0
  7 13  4  0
  7 15  1  0
  7 16  1  0
  7 17  4  0
  8 17  3  0
  9 11  3  0
  9 13  1  0
  9 15  2  0
  9 16  3  0
  9 17  4  0
 10 12  2  0
 10 13  3  0
 10 14  3  0
 10 15  2  0
 11 12  4  0
 11 17  3  0
 12 14  1  0
 13 15  3  0
 13 16  3  0
 14 15  4  0
 14 16  3  0
 15 17  4  0
M  END
$$$$

 Created by Python create_sdf_string function

 34  4  0  0  0  0  0  0  0  0999 V2000
    9.8668   -5.1851   17.0411 C   0  0  0  0  0  0  0  0  0  0  0  0
    0.4544  -10.4016   18.0192 C   0  0  0  0  0  0  0  0  0  0  0  0
    7.7821   -8.0446   16.5094 C   0  0  0  0  0  0  0  0  0  0  0  0
   -0.4273   -9.1602   17.6496 C   0  0  0  0  0  0  0  0  0  0  0  0
    0.3735   -9.3047   17.0641 C   0  0  0  0  0  0  0  0  0  0  0  0
    8.7765   -5.6028   16.5671 C   0  0  0  0  0  0  0  0  0  0  0  0
   11.0734   -4.2397   19.1202 C   0  0  0  0  0  0  0  0  0  0  0  0
   10.6510   -4.3617   19.2278 C   0  0  0  0  0  0  0  0  0  0  0  0
    9.3044   -5.9817   18.5378 C   0  0  0  0  0  0  0  0  0  0  0  0
    4.6631   -8.4347   16.3051 C   0  0  0  0  0  0  0  0  0  0  0  0
    4.5363   -8.4619   17.4499 C   0  0  0  0  0  0  0  0  0  0  0  0
    3.8988   -9.3935   17.3487 C   0  0  0  0  0  0  0  0  0  0  0  0
   10.3809   -3.7642   16.7129 C   0  0  0  0  0  0  0  0  0  0  0  0
   11.3368   -3.6331   15.8046 C   0  0  0  0  0  0  0  0  0  0  0  0
   10.6634   -5.0126   20.4873 C   0  0  0  0  0  0  0  0  0  0  0  0
    1.3919  -11.3538   18.6284 C   0  0  0  0  0  0  0  0  0  0  0  0
    2.2575   -9.9878   17.5950 C   0  0  0  0  0  0  0  0  0  0  0  0
    6.4538   -8.3785   17.6934 C   0  0  0  0  0  0  0  0  0  0  0  0
    7.9162   -7.7869   17.8914 C   0  0  0  0  0  0  0  0  0  0  0  0
    7.6143   -6.4216   16.6773 C   0  0  0  0  0  0  0  0  0  0  0  0
    1.8159  -11.4193   18.7452 C   0  0  0  0  0  0  0  0  0  0  0  0
    1.5081  -11.1330   19.0613 C   0  0  0  0  0  0  0  0  0  0  0  0
   11.1282   -5.6290   19.0370 C   0  0  0  0  0  0  0  0  0  0  0  0
    8.0856   -7.4662   15.6491 C   0  0  0  0  0  0  0  0  0  0  0  0
   11.4686   -5.2930   18.1528 C   0  0  0  0  0  0  0  0  0  0  0  0
   11.4364   -4.1736   17.9249 C   0  0  0  0  0  0  0  0  0  0  0  0
    5.5317   -7.8319   16.2239 C   0  0  0  0  0  0  0  0  0  0  0  0
   11.2811   -2.5526   18.2865 C   0  0  0  0  0  0  0  0  0  0  0  0
    7.3031   -6.2626   15.5099 C   0  0  0  0  0  0  0  0  0  0  0  0
    1.7910   -9.3185   16.3514 C   0  0  0  0  0  0  0  0  0  0  0  0
    3.3529   -9.4840   17.3685 C   0  0  0  0  0  0  0  0  0  0  0  0
   12.0126   -3.2730   15.9826 C   0  0  0  0  0  0  0  0  0  0  0  0
    9.4660   -6.6908   18.5663 C   0  0  0  0  0  0  0  0  0  0  0  0
   11.1377   -3.6216   20.7098 C   0  0  0  0  0  0  0  0  0  0  0  0
  3 24  1  0
 14 32  1  0
 16 21  4  0
 21 22  4  0
M  END
$$$$

 Created by Python create_sdf_string function

 34 63  0  0  0  0  0  0  0  0999 V2000
    9.1988   -4.6855   15.8883 Br  0  0  0  0  0  0  0  0  0  0  0  0
    9.9526   -5.4576   19.4979 F   0  0  0  0  0  0  0  0  0  0  0  0
    4.2465   -8.3729   16.0030 O   0  0  0  0  0  0  0  0  0  0  0  0
    2.4038   -9.6511   17.1745 C   0  0  0  0  0  0  0  0  0  0  0  0
   11.5492   -4.9398   16.1594 N   0  0  0  0  0  0  0  0  0  0  0  0
   10.2419   -5.8992   20.1139 O   0  0  0  0  0  0  0  0  0  0  0  0
    0.5240  -11.4866   19.2845 P   0  0  0  0  0  0  0  0  0  0  0  0
    2.1364   -9.6402   16.5632 F   0  0  0  0  0  0  0  0  0  0  0  0
    6.5974   -8.1886   18.6879 O   0  0  0  0  0  0  0  0  0  0  0  0
    8.1445   -7.5056   18.2687 Cl  0  0  0  0  0  0  0  0  0  0  0  0
    1.2509  -12.0795   17.3501 C   0  0  0  0  0  0  0  0  0  0  0  0
    8.2149   -6.5224   16.4031 S   0  0  0  0  0  0  0  0  0  0  0  0
   10.4120   -5.5119   16.7697 F   0  0  0  0  0  0  0  0  0  0  0  0
   11.0186   -5.0827   19.0509 C   0  0  0  0  0  0  0  0  0  0  0  0
    6.9141   -6.5448   15.9282 C   0  0  0  0  0  0  0  0  0  0  0  0
   11.6444   -4.9948   19.0105 Cl  0  0  0  0  0  0  0  0  0  0  0  0
    7.3728   -8.2696   15.6364 C   0  0  0  0  0  0  0  0  0  0  0  0
   11.5757   -2.1477   18.0139 C   0  0  0  0  0  0  0  0  0  0  0  0
    9.9555   -5.8691   16.8940 He  0  0  0  0  0  0  0  0  0  0  0  0
    0.4395  -10.8601   19.1662 He  0  0  0  0  0  0  0  0  0  0  0  0
    7.6743   -8.7366   17.1361 He  0  0  0  0  0  0  0  0  0  0  0  0
    0.4544   -9.0078   17.4357 He  0  0  0  0  0  0  0  0  0  0  0  0
    0.0779  -10.5014   16.9552 He  0  0  0  0  0  0  0  0  0  0  0  0
   11.8295   -2.7086   17.8284 He  0  0  0  0  0  0  0  0  0  0  0  0
   10.5033   -4.5034   20.6087 He  0  0  0  0  0  0  0  0  0  0  0  0
    4.8070   -7.2480   17.2827 He  0  0  0  0  0  0  0  0  0  0  0  0
   11.1903   -2.9505   16.6968 He  0  0  0  0  0  0  0  0  0  0  0  0
    7.3729   -7.1242   18.6654 He  0  0  0  0  0  0  0  0  0  0  0  0
    2.3683  -10.1994   21.8125 He  0  0  0  0  0  0  0  0  0  0  0  0
   11.7593   -5.4185   20.8899 He  0  0  0  0  0  0  0  0  0  0  0  0
    0.8490   -9.5861   17.4157 He  0  0  0  0  0  0  0  0  0  0  0  0
    2.6484   -9.5729   18.2587 He  0  0  0  0  0  0  0  0  0  0  0  0
    8.4121   -6.2975   19.6357 He  0  0  0  0  0  0  0  0  0  0  0  0
    9.9383   -2.1813   19.2264 He  0  0  0  0  0  0  0  0  0  0  0  0
  1  4  2  0
  1  5  3  0
  1  7  4  0
  1  9  4  0
  1 10  4  0
  1 16  3  0
  2  4  2  0
  2  6  4  0
  2  8  4  0
  2 10  2  0
  2 11  2  0
  2 14  2  0
  3  4  3  0
  3  5  2  0
  3  6  4  0
  3  7  1  0
  3 10  1  0
  3 14  2  0
  3 15  2  0
  3 16  3  0
  3 17  4  0
  4  6  4  0
  4  8  1  0
  4 10  2  0
  4 13  3  0
  5 11  2  0
  5 12  3  0
  5 14  3  0
  5 17  3  0
  6  8  2  0
  6  9  2  0
  6 10  2  0
  6 11  3  0
  6 14  1  0
  6 15  2  0
  6 17  1  0
  7 13  2  0
  7 14  2  0
  7 17  3  0
  8 11  2  0
  8 12  1  0
  8 13  3  0
  8 17  4  0
  9 14  1  0
  9 18  4  0
 10 11  3  0
 10 12  1  0
 10 14  4  0
 10 15  4  0
 10 18  1  0
 11 12  2  0
 11 13  2  0
 11 15  1  0
 11 16  3  0
 12 14  1  0
 12 16  4  0
 12 17  4  0
 13 17  1  0
 14 15  3  0
 14 17  3  0
 15 16  3  0
 16 18  4  0
 17 18  1  0
M  END
$$$$

 Created by Python create_sdf_string function

 34  2  0  0  0  0  0  0  0  0999 V2000
    9.5513   -5.6401   17.0363 C   0  0  0  0  0  0  0  0  0  0  0  0
    0.5820  -11.1474   19.1270 C   0  0  0  0  0  0  0  0  0  0  0  0
    7.2889   -8.2571   16.9609 C   0  0  0  0  0  0  0  0  0  0  0  0
    1.0192   -9.7199   17.1343 C   0  0  0  0  0  0  0  0  0  0  0  0
    0.0994  -10.6045   17.3519 C   0  0  0  0  0  0  0  0  0  0  0  0
    9.3482   -4.6396   16.1857 C   0  0  0  0  0  0  0  0  0  0  0  0
   11.3805   -2.9757   17.6607 C   0  0  0  0  0  0  0  0  0  0  0  0
   10.7465   -4.2526   20.8817 C   0  0  0  0  0  0  0  0  0  0  0  0
   10.2658   -5.4278   19.2822 C   0  0  0  0  0  0  0  0  0  0  0  0
    4.7956   -8.3794   17.0211 C   0  0  0  0  0  0  0  0  0  0  0  0
    4.3173   -8.5209   16.5390 C   0  0  0  0  0  0  0  0  0  0  0  0
    2.7747   -9.3096   17.0712 C   0  0  0  0  0  0  0  0  0  0  0  0
   11.3162   -3.3871   16.6069 C   0  0  0  0  0  0  0  0  0  0  0  0
   10.9727   -4.1635   16.4555 C   0  0  0  0  0  0  0  0  0  0  0  0
   10.4545   -5.5986   19.8742 C   0  0  0  0  0  0  0  0  0  0  0  0
    0.7744  -11.5545   19.3568 C   0  0  0  0  0  0  0  0  0  0  0  0
    2.2900   -9.2281   16.6573 C   0  0  0  0  0  0  0  0  0  0  0  0
    5.8564   -8.5013   18.0361 C   0  0  0  0  0  0  0  0  0  0  0  0
    7.2350   -7.5607   17.9139 C   0  0  0  0  0  0  0  0  0  0  0  0
    8.2308   -7.4462   17.7585 C   0  0  0  0  0  0  0  0  0  0  0  0
    0.5939  -11.2005   18.1075 C   0  0  0  0  0  0  0  0  0  0  0  0
    1.6769  -11.4640   19.9390 C   0  0  0  0  0  0  0  0  0  0  0  0
   11.4352   -4.8829   20.8917 C   0  0  0  0  0  0  0  0  0  0  0  0
    8.0275   -6.7908   16.4077 C   0  0  0  0  0  0  0  0  0  0  0  0
    9.9306   -5.2211   16.9293 C   0  0  0  0  0  0  0  0  0  0  0  0
   10.8961   -4.9593   19.1101 C   0  0  0  0  0  0  0  0  0  0  0  0
    7.0045   -7.0660   16.0540 C   0  0  0  0  0  0  0  0  0  0  0  0
   11.3540   -4.6878   18.9653 C   0  0  0  0  0  0  0  0  0  0  0  0
    7.0694   -8.0332   16.0211 C   0  0  0  0  0  0  0  0  0  0  0  0
    1.2423  -10.0522   17.4683 C   0  0  0  0  0  0  0  0  0  0  0  0
    2.8735   -9.9900   17.8781 C   0  0  0  0  0  0  0  0  0  0  0  0
   11.3157   -2.7915   17.8895 C   0  0  0  0  0  0  0  0  0  0  0  0
    8.8456   -6.6367   18.5401 C   0  0  0  0  0  0  0  0  0  0  0  0
   10.9450   -3.2276   19.3999 C   0  0  0  0  0  0  0  0  0  0  0  0
 10 11  4  0
 16 22  4  0
M  END
$$$$

 Created by Python create_sdf_string function

 34 61  0  0  0  0  0  0  0  0999 V2000
   10.4521   -4.4564   17.5025 C   0  0  0  0  0  0  0  0  0  0  0  0
    7.1808   -8.3545   16.8116 N   0  0  0  0  0  0  0  0  0  0  0  0
    0.9848  -10.6260   17.8579 O   0  0  0  0  0  0  0  0  0  0  0  0
    7.6084   -4.4769   15.6894 Cl  0  0  0  0  0  0  0  0  0  0  0  0
    9.6638   -3.6563   16.3162 C   0  0  0  0  0  0  0  0  0  0  0  0
    3.1177   -9.7958   17.1463 S   0  0  0  0  0  0  0  0  0  0  0  0
   10.4401   -3.3581   17.0690 P   0  0  0  0  0  0  0  0  0  0  0  0
   10.6638   -5.2211   18.9987 C   0  0  0  0  0  0  0  0  0  0  0  0
    2.3819  -10.1051   18.6719 C   0  0  0  0  0  0  0  0  0  0  0  0
    1.9902   -7.7705   16.4719 F   0  0  0  0  0  0  0  0  0  0  0  0
    6.1445   -8.2488   19.0165 F   0  0  0  0  0  0  0  0  0  0  0  0
    9.3952   -8.2002   18.8983 N   0  0  0  0  0  0  0  0  0  0  0  0
    8.0200   -6.1670   17.0100 C   0  0  0  0  0  0  0  0  0  0  0  0
    9.5363   -4.7409   19.2106 O   0  0  0  0  0  0  0  0  0  0  0  0
    8.5971   -6.1275   18.0660 O   0  0  0  0  0  0  0  0  0  0  0  0
   10.8711   -6.7780   18.5786 O   0  0  0  0  0  0  0  0  0  0  0  0
   10.4848   -1.4484   16.1967 C   0  0  0  0  0  0  0  0  0  0  0  0
   10.4490   -4.4553   19.4113 Cl  0  0  0  0  0  0  0  0  0  0  0  0
   -0.8126   -9.3713   20.6389 He  0  0  0  0  0  0  0  0  0  0  0  0
   -0.5118   -9.4803   17.7202 He  0  0  0  0  0  0  0  0  0  0  0  0
   10.8919   -3.9775   23.2118 He  0  0  0  0  0  0  0  0  0  0  0  0
   12.3703   -4.2469   18.1999 He  0  0  0  0  0  0  0  0  0  0  0  0
    1.5375   -6.9621   16.6812 He  0  0  0  0  0  0  0  0  0  0  0  0
    3.6095   -8.4272   15.4383 He  0  0  0  0  0  0  0  0  0  0  0  0
   11.5245   -2.8125   16.8020 He  0  0  0  0  0  0  0  0  0  0  0  0
   -0.6547  -12.8762   19.2167 He  0  0  0  0  0  0  0  0  0  0  0  0
    1.2824  -12.3723   21.5904 He  0  0  0  0  0  0  0  0  0  0  0  0
    7.9287   -5.2086   15.4624 He  0  0  0  0  0  0  0  0  0  0  0  0
   11.2226   -4.0966   19.1680 He  0  0  0  0  0  0  0  0  0  0  0  0
    7.3358   -7.6915   15.6017 He  0  0  0  0  0  0  0  0  0  0  0  0
    8.5441   -6.1897   15.8374 He  0  0  0  0  0  0  0  0  0  0  0  0
    1.1237  -10.5734   18.1563 He  0  0  0  0  0  0  0  0  0  0  0  0
    1.6193  -10.4699   16.8611 He  0  0  0  0  0  0  0  0  0  0  0  0
    8.9157   -6.6228   19.0671 He  0  0  0  0  0  0  0  0  0  0  0  0
  1  2  2  0
  1  3  3  0
  1 10  3  0
  1 12  1  0
  1 13  3  0
  1 14  1  0
  1 15  3  0
  1 17  4  0
  1 18  3  0
  2  4  4  0
  2  5  4  0
  2  7  3  0
  2 10  1  0
  2 13  2  0
  2 14  2  0
  2 15  1  0
  3  6  2  0
  3  7  1  0
  3 14  3  0
  3 18  3  0
  4  5  3  0
  4  8  1  0
  4 10  3  0
  4 12  1  0
  4 14  3  0
  4 15  4  0
  5  6  2  0
  5  7  4  0
  5  8  4  0
  5 10  2  0
  5 12  3  0
  5 14  3  0
  5 15  4  0
  5 16  1  0
  5 17  3  0
  6  7  4  0
  6  9  4  0
  6 11  1  0
  6 14  2  0
  7  8  3  0
  7 10  1  0
  7 15  1  0
  8 10  1  0
  8 12  3  0
  8 14  3  0
  8 15  2  0
  9 10  3  0
  9 14  4  0
  9 18  2  0
 10 12  1  0
 10 14  1  0
 10 17  3  0
 10 18  4  0
 11 16  2  0
 11 18  2  0
 12 14  3  0
 12 17  4  0
 14 16  2  0
 16 17  3  0
 16 18  2  0
 17 18  3  0
M  END
$$$$

 Created by Python create_sdf_string function

 34  3  0  0  0  0  0  0  0  0999 V2000
   10.5552   -4.5280   17.8698 C   0  0  0  0  0  0  0  0  0  0  0  0
   -0.4485  -10.7095   19.9476 C   0  0  0  0  0  0  0  0  0  0  0  0
    6.6372   -8.1443   16.9032 C   0  0  0  0  0  0  0  0  0  0  0  0
    0.9716  -10.5892   18.1668 C   0  0  0  0  0  0  0  0  0  0  0  0
    0.0344   -9.9844   17.8487 C   0  0  0  0  0  0  0  0  0  0  0  0
    8.1071   -5.1655   15.7492 O   0  0  0  0  0  0  0  0  0  0  0  0
    9.9385   -4.0040   16.2306 C   0  0  0  0  0  0  0  0  0  0  0  0
   10.8981   -4.1796   21.7352 O   0  0  0  0  0  0  0  0  0  0  0  0
   11.6026   -4.2470   18.3336 C   0  0  0  0  0  0  0  0  0  0  0  0
    2.1048   -8.3016   16.4125 C   0  0  0  0  0  0  0  0  0  0  0  0
    4.0507   -8.5379   16.4270 C   0  0  0  0  0  0  0  0  0  0  0  0
    3.5550   -9.3509   17.2105 C   0  0  0  0  0  0  0  0  0  0  0  0
   10.8209   -3.7855   16.8548 C   0  0  0  0  0  0  0  0  0  0  0  0
   11.5770   -3.2812   16.7343 C   0  0  0  0  0  0  0  0  0  0  0  0
   10.6419   -5.1905   19.3353 C   0  0  0  0  0  0  0  0  0  0  0  0
    2.4209  -10.3175   18.0140 C   0  0  0  0  0  0  0  0  0  0  0  0
    2.6789   -8.6300   16.4749 C   0  0  0  0  0  0  0  0  0  0  0  0
    5.8975   -8.4892   17.9360 C   0  0  0  0  0  0  0  0  0  0  0  0
    8.8874   -7.8306   18.3060 C   0  0  0  0  0  0  0  0  0  0  0  0
    7.7913   -6.9529   16.7977 C   0  0  0  0  0  0  0  0  0  0  0  0
   -0.2351  -11.8944   19.3135 C   0  0  0  0  0  0  0  0  0  0  0  0
    0.8642  -11.6711   20.4061 C   0  0  0  0  0  0  0  0  0  0  0  0
   10.1402   -4.8300   19.6391 C   0  0  0  0  0  0  0  0  0  0  0  0
    7.9136   -5.8901   15.8333 C   0  0  0  0  0  0  0  0  0  0  0  0
    8.4548   -6.8652   17.7202 C   0  0  0  0  0  0  0  0  0  0  0  0
   11.1142   -4.0633   19.8970 C   0  0  0  0  0  0  0  0  0  0  0  0
    6.7952   -8.0034   16.2716 C   0  0  0  0  0  0  0  0  0  0  0  0
   10.3143   -6.6633   18.8422 O   0  0  0  0  0  0  0  0  0  0  0  0
    8.0974   -6.3744   16.0125 C   0  0  0  0  0  0  0  0  0  0  0  0
    0.9556  -10.8630   18.5845 C   0  0  0  0  0  0  0  0  0  0  0  0
    1.6181   -9.8164   17.2317 C   0  0  0  0  0  0  0  0  0  0  0  0
   11.3885   -3.2479   16.5360 C   0  0  0  0  0  0  0  0  0  0  0  0
    9.0525   -7.0414   18.4900 C   0  0  0  0  0  0  0  0  0  0  0  0
   10.8421   -4.4466   20.1202 C   0  0  0  0  0  0  0  0  0  0  0  0
  3 27  1  0
 10 17  4  0
 12 16  4  0
M  END
$$$$

 Created by Python create_sdf_string function

 34 57  0  0  0  0  0  0  0  0999 V2000
    7.4279   -7.9644   16.0828 S   0  0  0  0  0  0  0  0  0  0  0  0
    2.0444  -10.2265   17.8178 F   0  0  0  0  0  0  0  0  0  0  0  0
   -0.0641   -9.2798   19.1512 N   0  0  0  0  0  0  0  0  0  0  0  0
    8.9589   -4.6199   16.9847 O   0  0  0  0  0  0  0  0  0  0  0  0
   11.0942   -5.1313   18.4353 F   0  0  0  0  0  0  0  0  0  0  0  0
    3.1971   -8.3651   16.8417 S   0  0  0  0  0  0  0  0  0  0  0  0
   11.9103   -6.4643   18.1561 C   0  0  0  0  0  0  0  0  0  0  0  0
    1.9789  -10.2133   18.3764 N   0  0  0  0  0  0  0  0  0  0  0  0
    5.2665   -9.0962   16.8991 Cl  0  0  0  0  0  0  0  0  0  0  0  0
    6.7353   -6.1329   15.3110 F   0  0  0  0  0  0  0  0  0  0  0  0
    9.3960   -6.0227   17.8598 C   0  0  0  0  0  0  0  0  0  0  0  0
    7.5826   -8.2724   15.4780 C   0  0  0  0  0  0  0  0  0  0  0  0
   10.8560   -6.2411   19.9329 N   0  0  0  0  0  0  0  0  0  0  0  0
    8.3342   -5.2659   15.5599 O   0  0  0  0  0  0  0  0  0  0  0  0
    0.9324  -10.4792   18.8133 P   0  0  0  0  0  0  0  0  0  0  0  0
    2.4979   -8.8525   19.6341 F   0  0  0  0  0  0  0  0  0  0  0  0
    9.2364   -8.7001   16.8166 F   0  0  0  0  0  0  0  0  0  0  0  0
   10.3186   -3.3825   17.7091 He  0  0  0  0  0  0  0  0  0  0  0  0
   -1.8278  -11.5728   20.0442 He  0  0  0  0  0  0  0  0  0  0  0  0
   10.8481   -3.7858   16.2206 He  0  0  0  0  0  0  0  0  0  0  0  0
    9.3207   -4.1974   22.0397 He  0  0  0  0  0  0  0  0  0  0  0  0
    4.3882   -9.0390   16.5286 He  0  0  0  0  0  0  0  0  0  0  0  0
    3.7780   -9.2356   16.8428 He  0  0  0  0  0  0  0  0  0  0  0  0
   11.5164   -5.0185   16.8912 He  0  0  0  0  0  0  0  0  0  0  0  0
   11.7986   -4.6728   16.9402 He  0  0  0  0  0  0  0  0  0  0  0  0
    3.0188   -7.1975   18.3575 He  0  0  0  0  0  0  0  0  0  0  0  0
    7.6766   -6.9480   17.5192 He  0  0  0  0  0  0  0  0  0  0  0  0
    8.5972   -6.4110   17.4821 He  0  0  0  0  0  0  0  0  0  0  0  0
    0.5296  -12.9561   19.9536 He  0  0  0  0  0  0  0  0  0  0  0  0
    1.9166  -10.6648   18.1584 He  0  0  0  0  0  0  0  0  0  0  0  0
   11.1581   -4.7240   18.7022 He  0  0  0  0  0  0  0  0  0  0  0  0
   12.4970   -3.6709   19.0193 He  0  0  0  0  0  0  0  0  0  0  0  0
    9.7662   -4.3507   15.8780 He  0  0  0  0  0  0  0  0  0  0  0  0
   10.7929   -4.6144   18.7240 He  0  0  0  0  0  0  0  0  0  0  0  0
  1  4  4  0
  1  5  1  0
  1  7  4  0
  1  8  4  0
  1 13  2  0
  2  4  3  0
  2 10  3  0
  2 11  3  0
  2 15  4  0
  2 17  1  0
  3  8  3  0
  3  9  3  0
  3 11  2  0
  3 12  4  0
  3 13  1  0
  3 14  1  0
  3 17  1  0
  4  5  2  0
  4  6  2  0
  4  7  2  0
  4  8  2  0
  4 10  1  0
  4 11  4  0
  4 12  3  0
  4 15  4  0
  4 16  4  0
  4 17  2  0
  5  6  2  0
  5 11  3  0
  5 14  4  0
  5 17  1  0
  6  7  1  0
  6  9  4  0
  6 10  3  0
  6 11  4  0
  6 12  4  0
  6 14  1  0
  6 15  1  0
  6 16  2  0
  7 10  4  0
  7 11  1  0
  7 13  4  0
  7 15  3  0
  7 16  1  0
  8  9  3  0
  8 15  2  0
  8 16  2  0
  9 10  2  0
  9 11  3  0
 10 13  3  0
 11 13  4  0
 11 15  4  0
 12 14  4  0
 12 16  4  0
 13 16  2  0
 14 16  1  0
 16 17  4  0
M  END
$$$$

 Created by Python create_sdf_string function

 34  2  0  0  0  0  0  0  0  0999 V2000
   10.8856   -3.5164   17.6545 C   0  0  0  0  0  0  0  0  0  0  0  0
   -0.9764  -11.2972   19.7070 C   0  0  0  0  0  0  0  0  0  0  0  0
    7.2872   -8.0881   16.3276 C   0  0  0  0  0  0  0  0  0  0  0  0
    1.6342  -10.3165   17.8811 C   0  0  0  0  0  0  0  0  0  0  0  0
   -0.3807  -10.3458   18.8490 C   0  0  0  0  0  0  0  0  0  0  0  0
    9.1414   -5.0354   16.7078 C   0  0  0  0  0  0  0  0  0  0  0  0
   11.0037   -3.6130   16.1553 C   0  0  0  0  0  0  0  0  0  0  0  0
   10.5704   -4.1891   21.0981 C   0  0  0  0  0  0  0  0  0  0  0  0
   10.8771   -4.9810   18.9018 C   0  0  0  0  0  0  0  0  0  0  0  0
    3.6708   -8.7496   16.7906 C   0  0  0  0  0  0  0  0  0  0  0  0
    4.8177   -8.7229   16.6902 C   0  0  0  0  0  0  0  0  0  0  0  0
    3.6245   -9.2209   16.9967 C   0  0  0  0  0  0  0  0  0  0  0  0
   11.2341   -4.4792   17.3242 C   0  0  0  0  0  0  0  0  0  0  0  0
   11.7173   -3.9945   16.8545 C   0  0  0  0  0  0  0  0  0  0  0  0
   11.1038   -6.0462   18.5868 C   0  0  0  0  0  0  0  0  0  0  0  0
    1.7592  -10.2990   18.0254 C   0  0  0  0  0  0  0  0  0  0  0  0
    5.4403   -8.5602   16.9207 C   0  0  0  0  0  0  0  0  0  0  0  0
    3.6080   -7.9890   17.0618 C   0  0  0  0  0  0  0  0  0  0  0  0
    7.3028   -7.1087   17.4441 C   0  0  0  0  0  0  0  0  0  0  0  0
    8.2085   -6.8172   17.2637 C   0  0  0  0  0  0  0  0  0  0  0  0
    0.4312  -11.9792   19.6555 C   0  0  0  0  0  0  0  0  0  0  0  0
    1.5071  -10.8718   18.4608 C   0  0  0  0  0  0  0  0  0  0  0  0
   11.0382   -4.5310   19.3159 C   0  0  0  0  0  0  0  0  0  0  0  0
    6.7574   -6.7105   15.8922 C   0  0  0  0  0  0  0  0  0  0  0  0
    9.3920   -6.1974   17.9385 C   0  0  0  0  0  0  0  0  0  0  0  0
   11.5485   -3.7115   19.3829 C   0  0  0  0  0  0  0  0  0  0  0  0
    7.5741   -8.2834   16.0146 C   0  0  0  0  0  0  0  0  0  0  0  0
   10.5193   -5.8170   19.8647 C   0  0  0  0  0  0  0  0  0  0  0  0
    8.0467   -5.4445   15.9442 O   0  0  0  0  0  0  0  0  0  0  0  0
    0.4732  -10.9966   18.7264 C   0  0  0  0  0  0  0  0  0  0  0  0
    2.8925  -10.1849   17.9819 C   0  0  0  0  0  0  0  0  0  0  0  0
    9.7951   -4.0887   16.1576 C   0  0  0  0  0  0  0  0  0  0  0  0
    8.7229   -8.2773   16.9746 C   0  0  0  0  0  0  0  0  0  0  0  0
   10.6634   -4.5758   19.1730 C   0  0  0  0  0  0  0  0  0  0  0  0
  3 27  1  0
 11 17  1  0
M  END
$$$$

 Created by Python create_sdf_string function

 34 70  0  0  0  0  0  0  0  0999 V2000
    6.7546   -8.2835   16.4708 O   0  0  0  0  0  0  0  0  0  0  0  0
    0.7726  -10.4446   18.6120 N   0  0  0  0  0  0  0  0  0  0  0  0
    1.0564   -9.0295   19.3162 F   0  0  0  0  0  0  0  0  0  0  0  0
   10.6050   -5.4523   20.9428 C   0  0  0  0  0  0  0  0  0  0  0  0
    6.2550   -8.3205   16.1599 C   0  0  0  0  0  0  0  0  0  0  0  0
    3.4402  -11.7219   17.6945 C   0  0  0  0  0  0  0  0  0  0  0  0
   10.4880   -4.8899   18.1007 O   0  0  0  0  0  0  0  0  0  0  0  0
   10.4550   -6.1918   18.4126 S   0  0  0  0  0  0  0  0  0  0  0  0
    2.1116  -11.1833   17.7513 N   0  0  0  0  0  0  0  0  0  0  0  0
    3.1330   -7.8664   17.2642 C   0  0  0  0  0  0  0  0  0  0  0  0
    1.2127  -12.1053   21.0181 B   0  0  0  0  0  0  0  0  0  0  0  0
    1.7762  -10.6976   19.0369 Cl  0  0  0  0  0  0  0  0  0  0  0  0
   11.0423   -3.6827   20.7446 C   0  0  0  0  0  0  0  0  0  0  0  0
    7.6264   -5.9309   16.9049 F   0  0  0  0  0  0  0  0  0  0  0  0
    7.2540   -7.9339   16.9697 N   0  0  0  0  0  0  0  0  0  0  0  0
    8.2383   -5.9963   20.5477 N   0  0  0  0  0  0  0  0  0  0  0  0
   -0.1577  -11.6782   19.5803 C   0  0  0  0  0  0  0  0  0  0  0  0
    3.3165   -9.9361   18.5783 S   0  0  0  0  0  0  0  0  0  0  0  0
   10.2558   -5.8758   16.5763 C   0  0  0  0  0  0  0  0  0  0  0  0
   10.9762   -4.4382   19.3352 O   0  0  0  0  0  0  0  0  0  0  0  0
    9.6097   -2.9182   18.0320 He  0  0  0  0  0  0  0  0  0  0  0  0
   -1.1775  -13.7883   19.5422 He  0  0  0  0  0  0  0  0  0  0  0  0
    8.7285   -2.8843   17.1560 He  0  0  0  0  0  0  0  0  0  0  0  0
   11.3392   -3.5196   15.4129 He  0  0  0  0  0  0  0  0  0  0  0  0
   11.3770   -3.9161   17.8151 He  0  0  0  0  0  0  0  0  0  0  0  0
    4.1096   -9.2880   17.8997 He  0  0  0  0  0  0  0  0  0  0  0  0
   11.0673   -5.7092   16.7797 He  0  0  0  0  0  0  0  0  0  0  0  0
    2.9776   -8.0731   15.9317 He  0  0  0  0  0  0  0  0  0  0  0  0
    7.7051   -8.6010   20.3274 He  0  0  0  0  0  0  0  0  0  0  0  0
    7.5882   -6.9574   14.6804 He  0  0  0  0  0  0  0  0  0  0  0  0
    7.7935   -6.4716   14.7392 He  0  0  0  0  0  0  0  0  0  0  0  0
   12.6020   -2.8090   19.6245 He  0  0  0  0  0  0  0  0  0  0  0  0
    7.8238   -6.0446   15.8606 He  0  0  0  0  0  0  0  0  0  0  0  0
    8.2069   -7.4524   17.7519 He  0  0  0  0  0  0  0  0  0  0  0  0
  1  3  1  0
  1  7  4  0
  1 10  2  0
  1 11  1  0
  1 16  3  0
  1 18  2  0
  2  3  3  0
  2  6  1  0
  2 11  4  0
  2 15  1  0
  2 16  4  0
  2 19  3  0
  3  4  4  0
  3  6  2  0
  3 10  3  0
  3 11  4  0
  3 14  4  0
  3 15  2  0
  3 16  3  0
  4  7  3  0
  4 11  4  0
  4 12  1  0
  4 13  2  0
  4 16  2  0
  4 17  1  0
  4 19  3  0
  5  7  3  0
  5 11  1  0
  5 15  2  0
  5 16  3  0
  5 19  1  0
  6 10  3  0
  6 11  1  0
  6 13  4  0
  6 16  3  0
  6 19  1  0
  6 20  1  0
  7 13  3  0
  7 18  3  0
  7 19  3  0
  7 20  1  0
  8 10  2  0
  8 11  2  0
  8 14  3  0
  8 18  1  0
  9 10  2  0
  9 13  1  0
 10 11  3  0
 10 13  2  0
 10 16  1  0
 10 20  3  0
 11 20  1  0
 12 14  4  0
 12 15  2  0
 12 16  4  0
 12 17  3  0
 12 20  4  0
 13 18  4  0
 13 19  1  0
 13 20  4  0
 14 15  4  0
 14 17  4  0
 14 20  3  0
 15 18  4  0
 15 19  2  0
 15 20  1  0
 16 18  1  0
 16 19  2  0
 16 20  1  0
 18 19  3  0
M  END
$$$$

 Created by Python create_sdf_string function

 34  7  0  0  0  0  0  0  0  0999 V2000
   10.5731   -3.4519   17.7619 C   0  0  0  0  0  0  0  0  0  0  0  0
   -0.3249  -12.5494   19.7340 C   0  0  0  0  0  0  0  0  0  0  0  0
    6.2510   -8.3802   16.4927 C   0  0  0  0  0  0  0  0  0  0  0  0
    0.7115  -11.1456   18.6574 C   0  0  0  0  0  0  0  0  0  0  0  0
    1.3184  -10.7043   18.5342 C   0  0  0  0  0  0  0  0  0  0  0  0
    9.6271   -3.7271   16.3893 C   0  0  0  0  0  0  0  0  0  0  0  0
   11.1767   -3.7738   15.8258 C   0  0  0  0  0  0  0  0  0  0  0  0
   10.7784   -4.8719   20.6565 C   0  0  0  0  0  0  0  0  0  0  0  0
   11.1021   -3.7908   17.7381 C   0  0  0  0  0  0  0  0  0  0  0  0
    4.5834   -9.3588   17.5239 C   0  0  0  0  0  0  0  0  0  0  0  0
    6.0283   -8.3785   16.5574 C   0  0  0  0  0  0  0  0  0  0  0  0
    3.3509  -10.7645   18.3099 C   0  0  0  0  0  0  0  0  0  0  0  0
   10.4872   -5.0357   17.1180 C   0  0  0  0  0  0  0  0  0  0  0  0
   10.6466   -4.7405   18.0899 C   0  0  0  0  0  0  0  0  0  0  0  0
   10.1329   -6.0631   18.5272 C   0  0  0  0  0  0  0  0  0  0  0  0
    2.2442  -10.5011   18.0307 C   0  0  0  0  0  0  0  0  0  0  0  0
    3.8278   -8.6760   16.8057 C   0  0  0  0  0  0  0  0  0  0  0  0
    3.5806   -8.7181   16.4462 C   0  0  0  0  0  0  0  0  0  0  0  0
    7.2842   -8.1100   18.6462 C   0  0  0  0  0  0  0  0  0  0  0  0
    7.5262   -7.4050   15.4191 C   0  0  0  0  0  0  0  0  0  0  0  0
    1.0098  -11.9890   20.4566 C   0  0  0  0  0  0  0  0  0  0  0  0
    1.7609  -11.2594   18.9340 C   0  0  0  0  0  0  0  0  0  0  0  0
   11.0387   -3.9607   20.7393 C   0  0  0  0  0  0  0  0  0  0  0  0
    7.7696   -6.6688   15.4644 C   0  0  0  0  0  0  0  0  0  0  0  0
    8.0169   -6.1502   16.9229 C   0  0  0  0  0  0  0  0  0  0  0  0
   11.3462   -3.1476   19.8951 C   0  0  0  0  0  0  0  0  0  0  0  0
    7.2746   -7.8899   17.2772 C   0  0  0  0  0  0  0  0  0  0  0  0
    9.3996   -5.9059   19.3009 C   0  0  0  0  0  0  0  0  0  0  0  0
    7.9430   -6.3394   16.0053 C   0  0  0  0  0  0  0  0  0  0  0  0
    0.1435  -11.8614   19.6695 C   0  0  0  0  0  0  0  0  0  0  0  0
    3.7327  -10.0372   17.9140 C   0  0  0  0  0  0  0  0  0  0  0  0
    9.6752   -5.5729   16.8506 C   0  0  0  0  0  0  0  0  0  0  0  0
    8.2082   -7.7332   17.6236 C   0  0  0  0  0  0  0  0  0  0  0  0
   10.9918   -4.3452   19.3983 C   0  0  0  0  0  0  0  0  0  0  0  0
  2 30  4  0
  3 11  1  0
 10 31  4  0
 17 18  4  0
 20 24  1  0
 24 29  1  0
 27 33  1  0
M  END
$$$$

 Created by Python create_sdf_string function

 34 79  0  0  0  0  0  0  0  0999 V2000
   10.4012   -4.7742   16.3213 N   0  0  0  0  0  0  0  0  0  0  0  0
    6.1781   -7.8277   15.7608 O   0  0  0  0  0  0  0  0  0  0  0  0
    2.6967  -12.3592   18.8041 C   0  0  0  0  0  0  0  0  0  0  0  0
    9.3912   -3.3465   16.7565 N   0  0  0  0  0  0  0  0  0  0  0  0
   11.4896   -3.7520   15.6137 P   0  0  0  0  0  0  0  0  0  0  0  0
   10.9548   -3.1075   18.2551 N   0  0  0  0  0  0  0  0  0  0  0  0
    5.3578   -8.2158   17.8691 C   0  0  0  0  0  0  0  0  0  0  0  0
    6.7944   -7.5306   17.0781 F   0  0  0  0  0  0  0  0  0  0  0  0
    2.2735  -12.3111   18.8801 C   0  0  0  0  0  0  0  0  0  0  0  0
   11.5810   -6.3012   18.5324 Cl  0  0  0  0  0  0  0  0  0  0  0  0
    9.8065   -5.9515   18.8052 F   0  0  0  0  0  0  0  0  0  0  0  0
    1.6129  -10.0016   18.3324 C   0  0  0  0  0  0  0  0  0  0  0  0
    3.0329   -8.9620   16.2239 O   0  0  0  0  0  0  0  0  0  0  0  0
    3.0118  -10.0912   18.1273 I   0  0  0  0  0  0  0  0  0  0  0  0
    7.9020   -8.6331   14.9502 P   0  0  0  0  0  0  0  0  0  0  0  0
   12.1912   -3.2961   21.3922 F   0  0  0  0  0  0  0  0  0  0  0  0
    7.2950   -8.4132   16.0235 N   0  0  0  0  0  0  0  0  0  0  0  0
   10.2045   -7.3775   17.4699 S   0  0  0  0  0  0  0  0  0  0  0  0
    6.3598   -7.1820   17.4003 C   0  0  0  0  0  0  0  0  0  0  0  0
    0.6075  -12.9719   19.3638 N   0  0  0  0  0  0  0  0  0  0  0  0
    5.1467  -10.1918   19.8075 C   0  0  0  0  0  0  0  0  0  0  0  0
    6.7115   -8.0161   17.0542 C   0  0  0  0  0  0  0  0  0  0  0  0
    0.4258  -11.0634   20.3228 He  0  0  0  0  0  0  0  0  0  0  0  0
    1.1551  -10.4596   17.8102 He  0  0  0  0  0  0  0  0  0  0  0  0
   11.9355   -5.0669   20.9896 He  0  0  0  0  0  0  0  0  0  0  0  0
   10.5169   -7.9000   18.5754 He  0  0  0  0  0  0  0  0  0  0  0  0
    4.1172   -7.7151   16.0138 He  0  0  0  0  0  0  0  0  0  0  0  0
    7.2697   -8.7624   17.9704 He  0  0  0  0  0  0  0  0  0  0  0  0
   10.2822   -8.3289   15.6477 He  0  0  0  0  0  0  0  0  0  0  0  0
    1.3914  -12.7364   22.1468 He  0  0  0  0  0  0  0  0  0  0  0  0
    9.3548   -1.5963   18.8994 He  0  0  0  0  0  0  0  0  0  0  0  0
    7.2464   -5.7510   16.8727 He  0  0  0  0  0  0  0  0  0  0  0  0
    9.5415   -6.0776   17.5727 He  0  0  0  0  0  0  0  0  0  0  0  0
   11.6112   -4.5789   18.0803 He  0  0  0  0  0  0  0  0  0  0  0  0
  1  7  2  0
  1 10  2  0
  1 21  4  0
  2  3  2  0
  2  4  3  0
  2  7  2  0
  2  9  4  0
  3  5  4  0
  3  6  2  0
  3  8  4  0
  3  9  4  0
  3 12  3  0
  3 14  2  0
  3 16  2  0
  3 17  2  0
  3 20  4  0
  3 21  4  0
  4  5  4  0
  4  6  1  0
  4 10  2  0
  4 16  2  0
  4 17  2  0
  4 19  2  0
  4 20  3  0
  4 21  3  0
  5  6  3  0
  5  7  1  0
  5  9  1  0
  5 12  4  0
  5 17  3  0
  5 21  3  0
  5 22  1  0
  6 11  4  0
  6 20  1  0
  7  9  3  0
  7 11  4  0
  7 16  4  0
  7 17  3  0
  7 19  2  0
  8 11  4  0
  8 14  1  0
  8 15  4  0
  8 18  2  0
  8 19  4  0
  8 21  1  0
  9 12  1  0
  9 13  1  0
  9 14  1  0
  9 15  4  0
  9 21  4  0
 10 17  2  0
 10 18  1  0
 10 20  1  0
 10 21  1  0
 10 22  2  0
 11 12  1  0
 11 13  4  0
 11 19  2  0
 11 21  4  0
 11 22  3  0
 12 20  2  0
 12 21  1  0
 12 22  2  0
 13 21  1  0
 13 22  2  0
 14 18  1  0
 15 18  4  0
 15 21  1  0
 16 18  1  0
 16 20  3  0
 16 21  1  0
 17 18  2  0
 17 20  3  0
 17 21  1  0
 17 22  4  0
 18 19  3  0
 18 20  1  0
 18 21  1  0
 20 21  1  0
M  END
$$$$

 Created by Python create_sdf_string function

 34  6  0  0  0  0  0  0  0  0999 V2000
   10.2605   -4.4228   16.7772 C   0  0  0  0  0  0  0  0  0  0  0  0
    0.6974  -11.6217   19.9571 C   0  0  0  0  0  0  0  0  0  0  0  0
    5.5612   -7.9943   16.0396 C   0  0  0  0  0  0  0  0  0  0  0  0
    2.4540  -11.6211   19.2216 C   0  0  0  0  0  0  0  0  0  0  0  0
    1.3600  -10.6332   18.0337 C   0  0  0  0  0  0  0  0  0  0  0  0
    9.8183   -3.9259   16.5180 C   0  0  0  0  0  0  0  0  0  0  0  0
   11.0998   -3.6945   16.2951 C   0  0  0  0  0  0  0  0  0  0  0  0
   11.3810   -4.7765   20.5212 C   0  0  0  0  0  0  0  0  0  0  0  0
   10.9194   -3.5165   18.3262 C   0  0  0  0  0  0  0  0  0  0  0  0
    5.1117   -8.8215   17.5275 C   0  0  0  0  0  0  0  0  0  0  0  0
    6.8760   -7.5396   17.2027 C   0  0  0  0  0  0  0  0  0  0  0  0
    1.9414  -11.5908   19.3774 C   0  0  0  0  0  0  0  0  0  0  0  0
   10.8872   -5.8016   19.0008 C   0  0  0  0  0  0  0  0  0  0  0  0
   10.1648   -5.8340   18.8171 C   0  0  0  0  0  0  0  0  0  0  0  0
    9.8410   -7.5691   18.5177 C   0  0  0  0  0  0  0  0  0  0  0  0
    1.9880  -10.4681   18.0022 C   0  0  0  0  0  0  0  0  0  0  0  0
    4.0374   -8.4650   16.5236 C   0  0  0  0  0  0  0  0  0  0  0  0
    3.0584   -9.0660   16.7396 C   0  0  0  0  0  0  0  0  0  0  0  0
    7.0354   -8.2276   17.9860 C   0  0  0  0  0  0  0  0  0  0  0  0
    9.2521   -8.2884   16.1918 F   0  0  0  0  0  0  0  0  0  0  0  0
    1.1244  -12.3076   21.0877 C   0  0  0  0  0  0  0  0  0  0  0  0
    3.1670  -10.1314   17.8932 C   0  0  0  0  0  0  0  0  0  0  0  0
   10.9300   -2.8719   18.9830 C   0  0  0  0  0  0  0  0  0  0  0  0
    7.8768   -8.3617   15.4246 C   0  0  0  0  0  0  0  0  0  0  0  0
    7.6190   -5.9128   16.5434 C   0  0  0  0  0  0  0  0  0  0  0  0
   11.4117   -3.7898   20.7943 C   0  0  0  0  0  0  0  0  0  0  0  0
    7.4279   -8.3020   16.0547 C   0  0  0  0  0  0  0  0  0  0  0  0
    9.4540   -7.3182   17.5911 C   0  0  0  0  0  0  0  0  0  0  0  0
    6.4606   -7.4924   17.4679 C   0  0  0  0  0  0  0  0  0  0  0  0
    0.7041  -12.3065   19.6500 C   0  0  0  0  0  0  0  0  0  0  0  0
    4.4882  -10.3796   18.4969 C   0  0  0  0  0  0  0  0  0  0  0  0
    9.4439   -5.9993   17.6277 C   0  0  0  0  0  0  0  0  0  0  0  0
    6.5391   -8.3248   17.0766 C   0  0  0  0  0  0  0  0  0  0  0  0
   11.0622   -4.2972   18.5392 C   0  0  0  0  0  0  0  0  0  0  0  0
  4 12  4  0
  5 16  4  0
  8 26  4  0
 17 18  4  0
 20 28  1  0
 24 27  1  0
M  END
$$$$

 Created by Python create_sdf_string function

 34 90  0  0  0  0  0  0  0  0999 V2000
   11.8795   -4.5082   15.7975 F   0  0  0  0  0  0  0  0  0  0  0  0
    4.5784   -7.3800   16.4517 C   0  0  0  0  0  0  0  0  0  0  0  0
    2.8719  -12.0288   20.8716 C   0  0  0  0  0  0  0  0  0  0  0  0
    1.4756  -11.5170   17.4373 C   0  0  0  0  0  0  0  0  0  0  0  0
   10.0445   -1.8496   19.1288 B   0  0  0  0  0  0  0  0  0  0  0  0
   11.0526   -5.0766   18.1397 N   0  0  0  0  0  0  0  0  0  0  0  0
    6.5244   -9.1047   17.9189 Cl  0  0  0  0  0  0  0  0  0  0  0  0
    6.3088   -7.4440   16.4770 N   0  0  0  0  0  0  0  0  0  0  0  0
   10.9579   -3.5249   18.6704 C   0  0  0  0  0  0  0  0  0  0  0  0
    8.5880   -5.4824   18.8306 F   0  0  0  0  0  0  0  0  0  0  0  0
    3.3349   -8.6662   18.5785 N   0  0  0  0  0  0  0  0  0  0  0  0
   11.2375   -0.5795   18.9196 O   0  0  0  0  0  0  0  0  0  0  0  0
    7.9674   -8.7138   14.0741 Cl  0  0  0  0  0  0  0  0  0  0  0  0
    7.9727   -5.8023   18.0659 F   0  0  0  0  0  0  0  0  0  0  0  0
   11.3681   -1.9556   21.1180 P   0  0  0  0  0  0  0  0  0  0  0  0
    7.0278   -7.9167   16.2070 C   0  0  0  0  0  0  0  0  0  0  0  0
    4.8936   -6.5978   17.7355 O   0  0  0  0  0  0  0  0  0  0  0  0
    1.4792  -12.2747   19.8498 C   0  0  0  0  0  0  0  0  0  0  0  0
    9.5695   -5.4468   17.9234 C   0  0  0  0  0  0  0  0  0  0  0  0
    5.8488   -9.8851   17.3046 F   0  0  0  0  0  0  0  0  0  0  0  0
   12.2334   -5.1634   18.5556 Cl  0  0  0  0  0  0  0  0  0  0  0  0
    1.6160  -11.6854   20.2685 He  0  0  0  0  0  0  0  0  0  0  0  0
   11.7678   -4.4167   15.7231 He  0  0  0  0  0  0  0  0  0  0  0  0
   10.7356   -3.7585   18.8680 He  0  0  0  0  0  0  0  0  0  0  0  0
    1.5665   -9.7753   19.6087 He  0  0  0  0  0  0  0  0  0  0  0  0
   10.6802   -6.6663   19.1556 He  0  0  0  0  0  0  0  0  0  0  0  0
    2.2325  -10.8823   18.4696 He  0  0  0  0  0  0  0  0  0  0  0  0
    2.6608   -7.3218   16.5300 He  0  0  0  0  0  0  0  0  0  0  0  0
    2.2951   -9.2657   16.2070 He  0  0  0  0  0  0  0  0  0  0  0  0
    6.8599   -8.8621   18.7547 He  0  0  0  0  0  0  0  0  0  0  0  0
    9.6219   -7.7142   15.3037 He  0  0  0  0  0  0  0  0  0  0  0  0
    0.8061  -13.1633   21.6589 He  0  0  0  0  0  0  0  0  0  0  0  0
    8.1969   -6.8439   18.4294 He  0  0  0  0  0  0  0  0  0  0  0  0
    3.9557  -12.6160   18.6812 He  0  0  0  0  0  0  0  0  0  0  0  0
  1  4  4  0
  1  7  2  0
  1 10  3  0
  1 11  1  0
  1 12  3  0
  1 13  4  0
  1 16  2  0
  1 18  4  0
  1 20  3  0
  2  6  4  0
  2  7  1  0
  2  8  1  0
  2  9  4  0
  2 11  4  0
  2 13  2  0
  2 16  2  0
  2 19  3  0
  2 20  1  0
  2 21  2  0
  3  7  1  0
  3  8  3  0
  3 11  2  0
  3 15  4  0
  3 17  4  0
  3 18  1  0
  3 20  4  0
  3 21  2  0
  4  9  4  0
  4 10  1  0
  4 19  2  0
  5  6  1  0
  5  8  3  0
  5 11  3  0
  5 15  2  0
  5 16  2  0
  5 18  3  0
  6 12  2  0
  6 18  1  0
  6 19  3  0
  6 20  2  0
  7  8  2  0
  7  9  4  0
  7 12  1  0
  7 15  4  0
  7 18  4  0
  8 10  4  0
  8 11  1  0
  8 15  3  0
  8 17  2  0
  8 18  2  0
  8 19  2  0
  8 21  4  0
  9 13  2  0
  9 15  4  0
  9 17  1  0
  9 18  1  0
  9 19  3  0
  9 20  2  0
 10 12  1  0
 10 13  3  0
 10 17  4  0
 10 19  1  0
 10 20  4  0
 11 12  4  0
 11 14  4  0
 11 16  1  0
 11 17  3  0
 11 19  1  0
 11 20  3  0
 12 13  2  0
 12 16  3  0
 12 19  4  0
 13 15  3  0
 13 16  1  0
 13 17  3  0
 13 20  4  0
 14 16  2  0
 14 17  2  0
 14 19  2  0
 14 20  2  0
 14 21  4  0
 15 16  1  0
 16 17  2  0
 16 18  3  0
 16 19  3  0
 16 21  2  0
 17 18  4  0
 17 19  3  0
 17 20  3  0
 19 21  3  0
M  END
$$$$

 Created by Python create_sdf_string function

 34  6  0  0  0  0  0  0  0  0999 V2000
   11.4121   -3.8808   16.3463 C   0  0  0  0  0  0  0  0  0  0  0  0
    1.2953  -11.9722   20.2651 C   0  0  0  0  0  0  0  0  0  0  0  0
    4.7646   -8.1991   16.7132 C   0  0  0  0  0  0  0  0  0  0  0  0
    2.2868  -12.2315   20.1752 C   0  0  0  0  0  0  0  0  0  0  0  0
    1.5703  -10.7872   18.1801 C   0  0  0  0  0  0  0  0  0  0  0  0
   10.9660   -2.9583   19.3689 C   0  0  0  0  0  0  0  0  0  0  0  0
   11.4140   -3.8544   16.3241 C   0  0  0  0  0  0  0  0  0  0  0  0
   10.9508   -3.7551   19.0901 C   0  0  0  0  0  0  0  0  0  0  0  0
   10.7478   -4.6957   18.0423 C   0  0  0  0  0  0  0  0  0  0  0  0
    6.2726   -8.6583   17.5928 C   0  0  0  0  0  0  0  0  0  0  0  0
    6.3713   -7.6634   16.4942 C   0  0  0  0  0  0  0  0  0  0  0  0
    1.5975  -11.0318   18.7619 C   0  0  0  0  0  0  0  0  0  0  0  0
   11.0453   -3.3898   18.8672 C   0  0  0  0  0  0  0  0  0  0  0  0
    9.1447   -5.7492   18.4849 C   0  0  0  0  0  0  0  0  0  0  0  0
   10.0913   -6.1999   18.7711 C   0  0  0  0  0  0  0  0  0  0  0  0
    2.3947  -10.6454   18.2354 C   0  0  0  0  0  0  0  0  0  0  0  0
    3.1022   -8.2839   16.5183 C   0  0  0  0  0  0  0  0  0  0  0  0
    2.5205   -9.2079   16.7890 C   0  0  0  0  0  0  0  0  0  0  0  0
    6.6725   -8.4601   18.1187 C   0  0  0  0  0  0  0  0  0  0  0  0
    8.6737   -7.3748   15.8993 C   0  0  0  0  0  0  0  0  0  0  0  0
    0.9279  -12.6304   21.2786 C   0  0  0  0  0  0  0  0  0  0  0  0
    3.5582   -9.6169   17.5525 C   0  0  0  0  0  0  0  0  0  0  0  0
   11.3188   -1.5666   18.8033 O   0  0  0  0  0  0  0  0  0  0  0  0
    7.7867   -8.5688   15.1938 C   0  0  0  0  0  0  0  0  0  0  0  0
    8.1908   -6.5075   17.7104 C   0  0  0  0  0  0  0  0  0  0  0  0
   11.1855   -2.8232   20.5965 O   0  0  0  0  0  0  0  0  0  0  0  0
    7.3651   -8.0230   16.1534 C   0  0  0  0  0  0  0  0  0  0  0  0
    8.2818   -7.0379   17.9134 C   0  0  0  0  0  0  0  0  0  0  0  0
    5.3336   -7.4110   17.3446 C   0  0  0  0  0  0  0  0  0  0  0  0
    1.5850  -12.0576   19.6884 C   0  0  0  0  0  0  0  0  0  0  0  0
    3.2471  -11.6126   19.0898 C   0  0  0  0  0  0  0  0  0  0  0  0
    9.6008   -5.5757   17.8900 C   0  0  0  0  0  0  0  0  0  0  0  0
    5.2741   -9.3696   17.4165 C   0  0  0  0  0  0  0  0  0  0  0  0
   11.5325   -4.9020   18.4292 C   0  0  0  0  0  0  0  0  0  0  0  0
  1  7  4  0
  4 31  4  0
  5 12  4  0
 17 18  4  0
 24 27  1  0
 25 28  1  0
M  END
$$$$

 Created by Python create_sdf_string function

 34 87  0  0  0  0  0  0  0  0999 V2000
    0.0139  -11.0386   19.8466 C   0  0  0  0  0  0  0  0  0  0  0  0
    1.1545  -12.6604   18.5149 N   0  0  0  0  0  0  0  0  0  0  0  0
    1.1829  -11.2570   17.3804 C   0  0  0  0  0  0  0  0  0  0  0  0
   10.6388   -3.0395   19.1488 O   0  0  0  0  0  0  0  0  0  0  0  0
   11.4415   -3.3210   15.2044 C   0  0  0  0  0  0  0  0  0  0  0  0
   11.0981   -4.8841   18.8793 C   0  0  0  0  0  0  0  0  0  0  0  0
    5.7522  -10.1644   18.3788 O   0  0  0  0  0  0  0  0  0  0  0  0
    6.2526   -9.0230   16.7961 N   0  0  0  0  0  0  0  0  0  0  0  0
    1.1350  -11.2610   18.3085 F   0  0  0  0  0  0  0  0  0  0  0  0
   10.7839   -3.7145   19.3247 F   0  0  0  0  0  0  0  0  0  0  0  0
   10.4109   -4.7682   18.0042 Se  0  0  0  0  0  0  0  0  0  0  0  0
    8.7656   -6.5856   18.7624 F   0  0  0  0  0  0  0  0  0  0  0  0
    4.2240   -6.5213   17.6509 C   0  0  0  0  0  0  0  0  0  0  0  0
    1.4649   -9.9344   15.9209 O   0  0  0  0  0  0  0  0  0  0  0  0
    8.5520   -7.0470   16.6431 I   0  0  0  0  0  0  0  0  0  0  0  0
    8.3325  -10.2525   16.1410 O   0  0  0  0  0  0  0  0  0  0  0  0
    7.7500   -6.7690   16.4045 Cl  0  0  0  0  0  0  0  0  0  0  0  0
   12.4706   -3.2120   20.8232 O   0  0  0  0  0  0  0  0  0  0  0  0
    7.5200   -7.9715   18.0696 C   0  0  0  0  0  0  0  0  0  0  0  0
    4.4387   -7.2168   15.7481 C   0  0  0  0  0  0  0  0  0  0  0  0
    9.2855   -4.6576   18.7947 C   0  0  0  0  0  0  0  0  0  0  0  0
    9.7185   -5.0071   16.8744 Cl  0  0  0  0  0  0  0  0  0  0  0  0
   10.1510   -4.3052   17.3126 He  0  0  0  0  0  0  0  0  0  0  0  0
    5.5840   -8.2459   17.6017 He  0  0  0  0  0  0  0  0  0  0  0  0
   10.2759   -5.4689   17.1662 He  0  0  0  0  0  0  0  0  0  0  0  0
    1.9828  -10.6189   19.0285 He  0  0  0  0  0  0  0  0  0  0  0  0
    7.0807   -8.2285   17.6739 He  0  0  0  0  0  0  0  0  0  0  0  0
    1.4507  -11.9593   20.3337 He  0  0  0  0  0  0  0  0  0  0  0  0
    3.7451   -9.7441   16.4302 He  0  0  0  0  0  0  0  0  0  0  0  0
   11.8942   -2.0175   19.3785 He  0  0  0  0  0  0  0  0  0  0  0  0
    7.8142   -7.9937   15.8853 He  0  0  0  0  0  0  0  0  0  0  0  0
    1.6945  -13.0334   19.8794 He  0  0  0  0  0  0  0  0  0  0  0  0
    2.4601  -11.2968   18.9816 He  0  0  0  0  0  0  0  0  0  0  0  0
    6.3032   -7.6529   17.1222 He  0  0  0  0  0  0  0  0  0  0  0  0
  1  3  3  0
  1  5  3  0
  1  8  1  0
  1  9  3  0
  1 10  2  0
  1 13  1  0
  1 20  1  0
  2  3  4  0
  2 13  3  0
  2 14  4  0
  2 15  1  0
  2 17  4  0
  2 19  1  0
  2 20  1  0
  2 21  2  0
  3  7  1  0
  3  8  3  0
  3 11  1  0
  3 13  4  0
  3 14  3  0
  3 20  2  0
  3 21  4  0
  4  6  3  0
  4 10  3  0
  4 14  1  0
  4 17  3  0
  4 18  2  0
  4 19  2  0
  4 20  1  0
  4 22  2  0
  5  6  3  0
  5  7  1  0
  5  9  4  0
  5 10  4  0
  5 15  2  0
  5 17  4  0
  5 21  3  0
  5 22  4  0
  6  8  4  0
  6  9  2  0
  6 10  3  0
  6 12  3  0
  6 14  4  0
  6 17  2  0
  7  9  3  0
  7 12  1  0
  7 14  2  0
  7 18  4  0
  7 19  4  0
  7 20  4  0
  7 22  1  0
  8 13  1  0
  8 16  4  0
  8 18  1  0
  8 20  4  0
  8 21  1  0
  9 12  1  0
  9 14  1  0
  9 15  3  0
  9 17  3  0
  9 22  3  0
 10 13  2  0
 10 16  3  0
 10 17  3  0
 10 18  3  0
 10 22  2  0
 11 15  4  0
 11 20  2  0
 11 21  3  0
 12 15  3  0
 13 14  4  0
 13 16  2  0
 13 17  1  0
 13 19  2  0
 14 16  4  0
 14 20  4  0
 15 16  3  0
 15 17  1  0
 15 19  1  0
 16 19  3  0
 16 20  2  0
 17 19  3  0
 17 20  3  0
 17 21  3  0
 18 21  2  0
 19 21  1  0
 21 22  2  0
M  END
$$$$

 Created by Python create_sdf_string function

 34  3  0  0  0  0  0  0  0  0999 V2000
   10.4971   -4.0433   16.8711 C   0  0  0  0  0  0  0  0  0  0  0  0
    0.4345  -11.4865   19.7307 C   0  0  0  0  0  0  0  0  0  0  0  0
    4.9355   -8.4895   17.1871 C   0  0  0  0  0  0  0  0  0  0  0  0
    0.8133  -12.0585   18.7585 C   0  0  0  0  0  0  0  0  0  0  0  0
    1.2828  -10.6408   17.7089 C   0  0  0  0  0  0  0  0  0  0  0  0
   11.0518   -3.3245   19.6312 C   0  0  0  0  0  0  0  0  0  0  0  0
   11.0161   -3.6694   16.0301 C   0  0  0  0  0  0  0  0  0  0  0  0
   10.7032   -4.7049   19.2863 C   0  0  0  0  0  0  0  0  0  0  0  0
   10.0510   -5.0601   17.2845 C   0  0  0  0  0  0  0  0  0  0  0  0
    5.0235   -9.8381   18.2472 C   0  0  0  0  0  0  0  0  0  0  0  0
    5.9094   -8.8354   16.9163 C   0  0  0  0  0  0  0  0  0  0  0  0
    1.3760  -10.9238   18.2746 C   0  0  0  0  0  0  0  0  0  0  0  0
   10.9341   -3.8997   19.8463 C   0  0  0  0  0  0  0  0  0  0  0  0
   10.4268   -4.7266   18.0884 C   0  0  0  0  0  0  0  0  0  0  0  0
    9.1500   -6.7678   18.3460 C   0  0  0  0  0  0  0  0  0  0  0  0
    2.1823  -10.7684   18.3945 C   0  0  0  0  0  0  0  0  0  0  0  0
    4.4037   -7.7957   16.8711 C   0  0  0  0  0  0  0  0  0  0  0  0
    1.7494   -9.4694   16.6853 C   0  0  0  0  0  0  0  0  0  0  0  0
    7.0409   -8.2269   17.6366 C   0  0  0  0  0  0  0  0  0  0  0  0
    8.5185   -6.8895   16.8674 C   0  0  0  0  0  0  0  0  0  0  0  0
    1.5185  -11.9975   20.4468 C   0  0  0  0  0  0  0  0  0  0  0  0
    3.2305   -9.3374   16.9638 C   0  0  0  0  0  0  0  0  0  0  0  0
   11.2457   -2.5357   19.4944 O   0  0  0  0  0  0  0  0  0  0  0  0
    7.7930   -8.9645   15.6562 C   0  0  0  0  0  0  0  0  0  0  0  0
    7.9693   -6.8026   16.3653 C   0  0  0  0  0  0  0  0  0  0  0  0
   11.5041   -3.4384   20.9679 O   0  0  0  0  0  0  0  0  0  0  0  0
    7.8455   -8.0764   15.8759 C   0  0  0  0  0  0  0  0  0  0  0  0
    7.6369   -7.8555   17.7508 C   0  0  0  0  0  0  0  0  0  0  0  0
    4.4005   -8.0132   16.2693 C   0  0  0  0  0  0  0  0  0  0  0  0
    1.6799  -12.2900   20.2751 C   0  0  0  0  0  0  0  0  0  0  0  0
    2.6679  -11.1379   18.7945 C   0  0  0  0  0  0  0  0  0  0  0  0
    9.9614   -5.2520   18.8938 C   0  0  0  0  0  0  0  0  0  0  0  0
    6.1915   -7.7732   16.9687 C   0  0  0  0  0  0  0  0  0  0  0  0
    9.7072   -4.7392   16.5402 C   0  0  0  0  0  0  0  0  0  0  0  0
 20 25  1  0
 21 30  4  0
 24 27  1  0
M  END
$$$$

 Created by Python create_sdf_string function

 34 88  0  0  0  0  0  0  0  0999 V2000
    1.9214  -12.1844   20.2255 N   0  0  0  0  0  0  0  0  0  0  0  0
    4.1790   -8.3745   18.2066 N   0  0  0  0  0  0  0  0  0  0  0  0
    2.3459   -9.3773   16.6199 C   0  0  0  0  0  0  0  0  0  0  0  0
   10.7762   -2.5261   19.8728 C   0  0  0  0  0  0  0  0  0  0  0  0
   10.5468   -4.3856   16.4738 C   0  0  0  0  0  0  0  0  0  0  0  0
   11.0003   -4.6979   20.6333 O   0  0  0  0  0  0  0  0  0  0  0  0
   10.8048   -5.3358   16.5809 Br  0  0  0  0  0  0  0  0  0  0  0  0
    5.1736   -9.3190   17.7688 O   0  0  0  0  0  0  0  0  0  0  0  0
    6.7614   -8.4542   16.6386 C   0  0  0  0  0  0  0  0  0  0  0  0
   -0.6532  -10.5740   18.4263 C   0  0  0  0  0  0  0  0  0  0  0  0
   13.6132   -2.9427   21.3755 C   0  0  0  0  0  0  0  0  0  0  0  0
    9.6927   -5.3797   17.6961 I   0  0  0  0  0  0  0  0  0  0  0  0
    8.4067   -5.9211   18.0247 Cl  0  0  0  0  0  0  0  0  0  0  0  0
    3.2754   -7.7496   16.5828 N   0  0  0  0  0  0  0  0  0  0  0  0
    2.4086  -10.7933   15.1436 C   0  0  0  0  0  0  0  0  0  0  0  0
    8.8677   -6.1940   17.9864 C   0  0  0  0  0  0  0  0  0  0  0  0
    1.9252  -13.1973   19.8608 F   0  0  0  0  0  0  0  0  0  0  0  0
    8.2212   -7.8031   16.2275 Cl  0  0  0  0  0  0  0  0  0  0  0  0
    4.4033   -8.2821   15.3547 C   0  0  0  0  0  0  0  0  0  0  0  0
    3.3527  -10.1662   17.6551 C   0  0  0  0  0  0  0  0  0  0  0  0
    8.8605   -6.9678   18.2548 S   0  0  0  0  0  0  0  0  0  0  0  0
    4.7137   -7.7358   18.6348 C   0  0  0  0  0  0  0  0  0  0  0  0
   10.8641   -2.4331   18.5926 He  0  0  0  0  0  0  0  0  0  0  0  0
    1.4143  -11.5382   18.1476 He  0  0  0  0  0  0  0  0  0  0  0  0
    1.8745  -10.0142   17.5396 He  0  0  0  0  0  0  0  0  0  0  0  0
    6.9734   -8.7877   17.5903 He  0  0  0  0  0  0  0  0  0  0  0  0
    3.2038   -8.9686   17.2994 He  0  0  0  0  0  0  0  0  0  0  0  0
   12.4057   -1.8157   20.6424 He  0  0  0  0  0  0  0  0  0  0  0  0
    9.2295   -7.1732   16.5570 He  0  0  0  0  0  0  0  0  0  0  0  0
   10.9872   -3.2352   22.6662 He  0  0  0  0  0  0  0  0  0  0  0  0
    7.0647   -8.4386   15.4058 He  0  0  0  0  0  0  0  0  0  0  0  0
    7.7536   -7.1438   17.5257 He  0  0  0  0  0  0  0  0  0  0  0  0
    0.6596  -12.6908   20.5800 He  0  0  0  0  0  0  0  0  0  0  0  0
    8.6118   -4.7991   16.4311 He  0  0  0  0  0  0  0  0  0  0  0  0
  1  7  1  0
  1  8  1  0
  1  9  1  0
  1 10  1  0
  1 11  1  0
  2  5  2  0
  2  8  2  0
  2 10  3  0
  2 12  1  0
  2 13  1  0
  2 15  3  0
  2 18  2  0
  2 20  4  0
  2 21  2  0
  3  5  2  0
  3  6  2  0
  3  9  2  0
  3 12  4  0
  3 13  2  0
  3 14  3  0
  3 15  1  0
  3 18  2  0
  3 21  3  0
  4  6  1  0
  4  8  4  0
  4  9  1  0
  4 10  3  0
  4 14  1  0
  4 15  2  0
  4 16  3  0
  4 19  1  0
  5  6  4  0
  5 11  3  0
  5 13  1  0
  5 15  4  0
  5 16  2  0
  6  7  1  0
  6 14  2  0
  6 18  1  0
  6 21  4  0
  6 22  1  0
  7  9  2  0
  7 11  2  0
  7 12  2  0
  7 13  3  0
  7 14  1  0
  7 16  1  0
  7 18  3  0
  7 19  1  0
  7 22  2  0
  8 12  3  0
  8 13  4  0
  8 14  4  0
  8 15  2  0
  8 17  4  0
  8 19  4  0
  8 20  3  0
  8 21  4  0
  9 10  2  0
  9 12  2  0
  9 14  3  0
  9 15  2  0
  9 17  2  0
  9 21  2  0
 10 13  3  0
 10 14  2  0
 10 16  2  0
 11 12  4  0
 11 14  4  0
 11 16  4  0
 11 18  4  0
 11 20  4  0
 11 21  3  0
 12 14  2  0
 12 15  1  0
 13 14  1  0
 13 16  3  0
 13 18  2  0
 14 17  2  0
 14 18  4  0
 15 16  4  0
 16 17  3  0
 16 21  3  0
 17 18  2  0
 17 21  1  0
 18 19  3  0
 18 22  3  0
 19 21  3  0
M  END
$$$$

 Created by Python create_sdf_string function

 34 10  0  0  0  0  0  0  0  0999 V2000
   11.0681   -3.1590   18.4876 C   0  0  0  0  0  0  0  0  0  0  0  0
    1.9251  -11.9175   19.8372 C   0  0  0  0  0  0  0  0  0  0  0  0
    4.3568   -9.0642   17.7572 N   0  0  0  0  0  0  0  0  0  0  0  0
    1.2023  -11.1410   18.4217 C   0  0  0  0  0  0  0  0  0  0  0  0
    1.9083   -9.5265   16.6362 C   0  0  0  0  0  0  0  0  0  0  0  0
   11.1599   -3.5976   20.3998 C   0  0  0  0  0  0  0  0  0  0  0  0
   10.6521   -3.8342   16.9311 C   0  0  0  0  0  0  0  0  0  0  0  0
   10.8674   -4.2811   20.5253 C   0  0  0  0  0  0  0  0  0  0  0  0
   10.3112   -4.3636   16.9241 C   0  0  0  0  0  0  0  0  0  0  0  0
    5.1127   -9.0065   17.6293 C   0  0  0  0  0  0  0  0  0  0  0  0
    6.7756   -8.6332   16.6605 C   0  0  0  0  0  0  0  0  0  0  0  0
    0.2713  -11.2435   18.4773 C   0  0  0  0  0  0  0  0  0  0  0  0
   12.2582   -3.0675   21.8160 C   0  0  0  0  0  0  0  0  0  0  0  0
   10.1527   -4.9549   18.4762 C   0  0  0  0  0  0  0  0  0  0  0  0
    9.1316   -6.0147   18.1068 C   0  0  0  0  0  0  0  0  0  0  0  0
    1.6623  -10.4566   17.8582 C   0  0  0  0  0  0  0  0  0  0  0  0
    3.6365   -8.3957   16.3367 C   0  0  0  0  0  0  0  0  0  0  0  0
    1.5176   -9.5419   15.8036 C   0  0  0  0  0  0  0  0  0  0  0  0
    6.8948   -8.3951   17.3293 C   0  0  0  0  0  0  0  0  0  0  0  0
    9.4327   -5.8231   18.1286 C   0  0  0  0  0  0  0  0  0  0  0  0
    1.8089  -12.2031   19.9387 C   0  0  0  0  0  0  0  0  0  0  0  0
    2.9898   -9.3867   17.0429 C   0  0  0  0  0  0  0  0  0  0  0  0
   11.6625   -2.7435   21.0734 C   0  0  0  0  0  0  0  0  0  0  0  0
    8.2877   -7.8228   15.9626 C   0  0  0  0  0  0  0  0  0  0  0  0
    8.7630   -7.1138   16.5521 C   0  0  0  0  0  0  0  0  0  0  0  0
   11.0532   -3.4982   22.1414 C   0  0  0  0  0  0  0  0  0  0  0  0
    7.0429   -8.5043   15.5555 C   0  0  0  0  0  0  0  0  0  0  0  0
    7.8133   -7.3633   17.6670 C   0  0  0  0  0  0  0  0  0  0  0  0
    4.5386   -8.5291   15.8012 C   0  0  0  0  0  0  0  0  0  0  0  0
    0.7386  -12.1053   20.0019 C   0  0  0  0  0  0  0  0  0  0  0  0
    2.8619  -10.4129   18.0905 C   0  0  0  0  0  0  0  0  0  0  0  0
    8.9906   -6.9743   18.1091 C   0  0  0  0  0  0  0  0  0  0  0  0
    5.3633   -8.0533   18.1652 C   0  0  0  0  0  0  0  0  0  0  0  0
    9.3864   -4.6964   16.3260 C   0  0  0  0  0  0  0  0  0  0  0  0
  1  7  4  0
  2 21  4  0
  2 30  4  0
  4 12  4  0
  5 18  1  0
  6  8  1  0
  7  9  4  0
  9 34  4  0
 11 19  4  0
 12 30  4  0
M  END
$$$$

 Created by Python create_sdf_string function

 34 37  0  0  0  0  0  0  0  0999 V2000
    1.3265  -11.7764   20.6536 F   0  0  0  0  0  0  0  0  0  0  0  0
    4.3579   -7.1468   18.4932 N   0  0  0  0  0  0  0  0  0  0  0  0
    1.7607  -11.0740   15.6629 C   0  0  0  0  0  0  0  0  0  0  0  0
   10.8100   -4.5897   19.9224 S   0  0  0  0  0  0  0  0  0  0  0  0
    6.6318   -8.3390   16.8658 N   0  0  0  0  0  0  0  0  0  0  0  0
    0.8141  -12.4294   18.5008 P   0  0  0  0  0  0  0  0  0  0  0  0
   12.2813   -2.9050   21.7131 N   0  0  0  0  0  0  0  0  0  0  0  0
   11.1329   -3.0309   19.0534 S   0  0  0  0  0  0  0  0  0  0  0  0
    1.9735   -9.2986   19.9686 Br  0  0  0  0  0  0  0  0  0  0  0  0
    0.9274   -9.4706   15.8734 O   0  0  0  0  0  0  0  0  0  0  0  0
    7.5089   -9.4205   15.3095 C   0  0  0  0  0  0  0  0  0  0  0  0
   11.1327   -3.2647   21.4350 N   0  0  0  0  0  0  0  0  0  0  0  0
    7.5442   -8.1482   19.1811 C   0  0  0  0  0  0  0  0  0  0  0  0
    5.2136   -8.6484   15.5782 C   0  0  0  0  0  0  0  0  0  0  0  0
    1.7555  -10.9960   19.8285 N   0  0  0  0  0  0  0  0  0  0  0  0
    4.9455   -9.7656   19.3470 C   0  0  0  0  0  0  0  0  0  0  0  0
    9.8120   -4.2610   18.2446 He  0  0  0  0  0  0  0  0  0  0  0  0
    0.6229  -12.3423   18.2345 He  0  0  0  0  0  0  0  0  0  0  0  0
   11.6887   -3.4507   18.4896 He  0  0  0  0  0  0  0  0  0  0  0  0
   11.9346   -3.6766   17.2647 He  0  0  0  0  0  0  0  0  0  0  0  0
   10.7281   -3.5953   16.6849 He  0  0  0  0  0  0  0  0  0  0  0  0
    6.3153   -7.6518   15.8898 He  0  0  0  0  0  0  0  0  0  0  0  0
    8.4979   -6.9544   17.8988 He  0  0  0  0  0  0  0  0  0  0  0  0
    3.3508   -8.7806   16.1454 He  0  0  0  0  0  0  0  0  0  0  0  0
    7.9425   -8.1103   16.8887 He  0  0  0  0  0  0  0  0  0  0  0  0
   10.8053   -6.0184   17.8568 He  0  0  0  0  0  0  0  0  0  0  0  0
    3.8203  -11.5995   21.3936 He  0  0  0  0  0  0  0  0  0  0  0  0
    2.3678   -8.2209   15.8665 He  0  0  0  0  0  0  0  0  0  0  0  0
   12.1308   -1.6134   21.1498 He  0  0  0  0  0  0  0  0  0  0  0  0
    9.1223   -7.9211   17.1436 He  0  0  0  0  0  0  0  0  0  0  0  0
    8.7634   -9.5281   15.6383 He  0  0  0  0  0  0  0  0  0  0  0  0
    3.2830  -10.2037   17.7918 He  0  0  0  0  0  0  0  0  0  0  0  0
    8.4368   -7.4408   17.0617 He  0  0  0  0  0  0  0  0  0  0  0  0
    9.1600   -5.9791   16.7435 He  0  0  0  0  0  0  0  0  0  0  0  0
  1  7  2  0
  1  9  4  0
  1 10  1  0
  2  5  2  0
  2  7  4  0
  2 10  2  0
  3  4  1  0
  3  7  1  0
  3  9  4  0
  3 11  1  0
  3 12  2  0
  3 14  2  0
  4  5  2  0
  4  8  4  0
  4 11  3  0
  4 14  4  0
  5  8  1  0
  5  9  3  0
  5 13  4  0
  5 14  2  0
  5 15  2  0
  5 16  1  0
  6  9  2  0
  6 11  3  0
  6 16  4  0
  7 11  1  0
  7 12  3  0
  8  9  4  0
  8 10  3  0
  8 11  4  0
  8 14  1  0
  9 11  1  0
  9 13  4  0
  9 15  3  0
 11 14  1  0
 12 15  1  0
 14 16  2  0
M  END
$$$$

 Created by Python create_sdf_string function

 34 13  0  0  0  0  0  0  0  0999 V2000
   10.2724   -4.8484   18.5205 C   0  0  0  0  0  0  0  0  0  0  0  0
    1.3086  -12.0170   20.3600 C   0  0  0  0  0  0  0  0  0  0  0  0
    4.8306   -8.0583   17.6201 C   0  0  0  0  0  0  0  0  0  0  0  0
    0.6829  -11.5813   18.4691 C   0  0  0  0  0  0  0  0  0  0  0  0
    1.5711   -9.7495   16.6790 C   0  0  0  0  0  0  0  0  0  0  0  0
   11.1685   -3.4478   18.7897 C   0  0  0  0  0  0  0  0  0  0  0  0
   11.2140   -3.3634   17.2152 C   0  0  0  0  0  0  0  0  0  0  0  0
   10.7764   -4.2061   20.2589 C   0  0  0  0  0  0  0  0  0  0  0  0
   10.7872   -3.7921   16.6626 C   0  0  0  0  0  0  0  0  0  0  0  0
    6.1786   -8.2737   17.2137 C   0  0  0  0  0  0  0  0  0  0  0  0
    6.1405   -7.8961   16.1950 C   0  0  0  0  0  0  0  0  0  0  0  0
    0.7112  -11.7517   18.7509 C   0  0  0  0  0  0  0  0  0  0  0  0
   11.5600   -3.0468   21.6709 C   0  0  0  0  0  0  0  0  0  0  0  0
   11.1810   -3.4564   19.3939 C   0  0  0  0  0  0  0  0  0  0  0  0
    8.8699   -6.6993   17.9275 C   0  0  0  0  0  0  0  0  0  0  0  0
    2.4432  -10.8477   18.6123 C   0  0  0  0  0  0  0  0  0  0  0  0
    3.2626   -8.9994   16.5483 C   0  0  0  0  0  0  0  0  0  0  0  0
    1.3566   -9.6337   16.5133 C   0  0  0  0  0  0  0  0  0  0  0  0
    7.5970   -8.0122   16.7203 C   0  0  0  0  0  0  0  0  0  0  0  0
   10.1955   -5.2156   18.2533 C   0  0  0  0  0  0  0  0  0  0  0  0
    2.6084  -11.7557   20.0563 C   0  0  0  0  0  0  0  0  0  0  0  0
    2.8569   -8.9864   16.2547 C   0  0  0  0  0  0  0  0  0  0  0  0
   11.6312   -2.4726   21.4320 O   0  0  0  0  0  0  0  0  0  0  0  0
    7.1672   -8.7333   15.5009 C   0  0  0  0  0  0  0  0  0  0  0  0
    9.0331   -7.5725   17.4356 C   0  0  0  0  0  0  0  0  0  0  0  0
   11.1600   -3.4893   21.4996 C   0  0  0  0  0  0  0  0  0  0  0  0
    8.2162   -8.4265   15.3859 C   0  0  0  0  0  0  0  0  0  0  0  0
    7.4401   -7.8966   18.1038 C   0  0  0  0  0  0  0  0  0  0  0  0
    5.1192   -8.5428   15.9366 C   0  0  0  0  0  0  0  0  0  0  0  0
    1.9701  -11.5978   19.5673 C   0  0  0  0  0  0  0  0  0  0  0  0
    2.8272  -10.2217   17.9206 C   0  0  0  0  0  0  0  0  0  0  0  0
    8.2965   -7.2584   17.0202 C   0  0  0  0  0  0  0  0  0  0  0  0
    4.6412   -9.8503   18.4580 C   0  0  0  0  0  0  0  0  0  0  0  0
    9.5589   -5.2030   16.9160 C   0  0  0  0  0  0  0  0  0  0  0  0
  1 20  4  0
  4 12  4  0
  5 18  4  0
  6 14  4  0
  7  9  4  0
  8 14  4  0
  9 34  4  0
 13 23  4  0
 13 26  1  0
 16 31  4  0
 17 22  4  0
 21 30  4  0
 24 27  1  0
M  END
$$$$

 Created by Python create_sdf_string function

 34 63  0  0  0  0  0  0  0  0999 V2000
    0.5970  -11.3012   20.8660 O   0  0  0  0  0  0  0  0  0  0  0  0
    5.1214   -5.9745   18.3903 C   0  0  0  0  0  0  0  0  0  0  0  0
    1.6945  -11.9585   17.0038 N   0  0  0  0  0  0  0  0  0  0  0  0
   12.3592   -3.6037   20.1080 Cl  0  0  0  0  0  0  0  0  0  0  0  0
   10.9059   -3.5290   17.8959 O   0  0  0  0  0  0  0  0  0  0  0  0
   10.5014   -2.8629   16.6919 N   0  0  0  0  0  0  0  0  0  0  0  0
    5.8711   -8.4529   17.1615 O   0  0  0  0  0  0  0  0  0  0  0  0
    0.7437  -11.4180   19.4862 C   0  0  0  0  0  0  0  0  0  0  0  0
    9.9125   -6.0127   18.8312 Cl  0  0  0  0  0  0  0  0  0  0  0  0
    2.3959  -10.0298   19.2980 C   0  0  0  0  0  0  0  0  0  0  0  0
    1.9035   -9.2235   17.0975 O   0  0  0  0  0  0  0  0  0  0  0  0
    7.1197   -9.1719   15.9135 O   0  0  0  0  0  0  0  0  0  0  0  0
   11.4707   -4.9373   18.6910 C   0  0  0  0  0  0  0  0  0  0  0  0
    8.8201   -6.6497   15.3982 Cl  0  0  0  0  0  0  0  0  0  0  0  0
    7.6150   -8.5594   17.4560 F   0  0  0  0  0  0  0  0  0  0  0  0
    5.6538   -7.1210   15.3711 P   0  0  0  0  0  0  0  0  0  0  0  0
    1.6384  -11.7443   20.5869 F   0  0  0  0  0  0  0  0  0  0  0  0
    3.5998  -10.8540   17.1659 C   0  0  0  0  0  0  0  0  0  0  0  0
    8.4555   -6.6326   17.3748 C   0  0  0  0  0  0  0  0  0  0  0  0
    5.4949   -9.0322   16.9661 N   0  0  0  0  0  0  0  0  0  0  0  0
    8.9476   -4.5614   18.0482 He  0  0  0  0  0  0  0  0  0  0  0  0
    2.1899   -9.7647   14.8136 He  0  0  0  0  0  0  0  0  0  0  0  0
   12.0130   -3.4630   22.0596 He  0  0  0  0  0  0  0  0  0  0  0  0
    5.2455   -9.1447   18.3670 He  0  0  0  0  0  0  0  0  0  0  0  0
   11.2640   -2.2270   22.0730 He  0  0  0  0  0  0  0  0  0  0  0  0
   11.5679   -3.2408   16.9007 He  0  0  0  0  0  0  0  0  0  0  0  0
    2.6455   -9.1498   17.1887 He  0  0  0  0  0  0  0  0  0  0  0  0
    2.0619  -11.3017   21.6213 He  0  0  0  0  0  0  0  0  0  0  0  0
    2.5895   -9.4342   17.7214 He  0  0  0  0  0  0  0  0  0  0  0  0
   11.9958   -3.0293   21.1614 He  0  0  0  0  0  0  0  0  0  0  0  0
    8.2573   -8.4699   15.9125 He  0  0  0  0  0  0  0  0  0  0  0  0
    9.7590   -8.6380   16.2138 He  0  0  0  0  0  0  0  0  0  0  0  0
   10.7658   -3.2991   21.8709 He  0  0  0  0  0  0  0  0  0  0  0  0
    8.7220   -5.4455   18.5282 He  0  0  0  0  0  0  0  0  0  0  0  0
  1  3  3  0
  1  9  4  0
  1 13  1  0
  2  8  2  0
  2  9  2  0
  2 14  3  0
  2 18  4  0
  2 19  4  0
  3 12  1  0
  3 13  2  0
  3 14  2  0
  3 15  4  0
  3 16  3  0
  3 20  3  0
  4  8  3  0
  4 10  4  0
  4 19  4  0
  4 20  3  0
  5  6  4  0
  5  7  3  0
  5 11  4  0
  5 16  4  0
  5 19  2  0
  5 20  4  0
  6  7  2  0
  6 10  3  0
  6 11  1  0
  6 14  4  0
  6 17  1  0
  6 18  1  0
  6 19  1  0
  6 20  4  0
  7 12  3  0
  7 14  2  0
  7 15  2  0
  7 17  2  0
  7 19  3  0
  8 10  3  0
  8 13  1  0
  8 15  1  0
  8 18  3  0
  9 11  2  0
  9 14  4  0
  9 17  4  0
  9 20  4  0
 10 12  2  0
 10 16  3  0
 10 18  4  0
 11 12  2  0
 11 15  2  0
 11 19  2  0
 12 15  1  0
 12 16  4  0
 13 14  1  0
 13 16  3  0
 13 19  2  0
 14 16  2  0
 14 18  1  0
 15 16  3  0
 15 19  1  0
 16 18  2  0
 16 20  2  0
 18 20  2  0
M  END
$$$$

 Created by Python create_sdf_string function

 34  8  0  0  0  0  0  0  0  0999 V2000
    9.6350   -5.2266   17.8705 C   0  0  0  0  0  0  0  0  0  0  0  0
    0.7382  -11.8299   20.6644 C   0  0  0  0  0  0  0  0  0  0  0  0
    5.9703   -7.4368   18.0520 C   0  0  0  0  0  0  0  0  0  0  0  0
    1.3541  -10.6637   17.8091 C   0  0  0  0  0  0  0  0  0  0  0  0
    2.2809   -9.0971   15.6184 C   0  0  0  0  0  0  0  0  0  0  0  0
   11.5318   -3.7639   20.5449 C   0  0  0  0  0  0  0  0  0  0  0  0
   11.0026   -3.6306   18.1105 C   0  0  0  0  0  0  0  0  0  0  0  0
   11.7663   -3.6690   21.9488 C   0  0  0  0  0  0  0  0  0  0  0  0
   10.6414   -3.7881   16.8308 C   0  0  0  0  0  0  0  0  0  0  0  0
    4.9489   -9.3664   18.0096 C   0  0  0  0  0  0  0  0  0  0  0  0
    5.7403   -8.4070   16.9646 C   0  0  0  0  0  0  0  0  0  0  0  0
    0.8043  -11.4497   19.3579 C   0  0  0  0  0  0  0  0  0  0  0  0
   11.3695   -2.8778   22.0085 C   0  0  0  0  0  0  0  0  0  0  0  0
   11.0460   -3.5621   17.2051 C   0  0  0  0  0  0  0  0  0  0  0  0
    9.9608   -5.6655   18.8066 C   0  0  0  0  0  0  0  0  0  0  0  0
    2.3924  -11.1721   18.9504 C   0  0  0  0  0  0  0  0  0  0  0  0
    2.8693   -9.3335   16.7803 C   0  0  0  0  0  0  0  0  0  0  0  0
    1.8737   -9.6320   16.9816 C   0  0  0  0  0  0  0  0  0  0  0  0
    7.0595   -8.6011   15.9611 C   0  0  0  0  0  0  0  0  0  0  0  0
   10.8582   -4.4876   19.2295 C   0  0  0  0  0  0  0  0  0  0  0  0
    1.5814  -11.9781   20.8656 C   0  0  0  0  0  0  0  0  0  0  0  0
    2.3504  -10.0735   17.5835 C   0  0  0  0  0  0  0  0  0  0  0  0
   11.6685   -3.4578   21.2988 C   0  0  0  0  0  0  0  0  0  0  0  0
    7.8031   -8.1403   15.9375 C   0  0  0  0  0  0  0  0  0  0  0  0
    8.8321   -8.2267   16.5531 C   0  0  0  0  0  0  0  0  0  0  0  0
   11.0796   -3.8446   21.6814 C   0  0  0  0  0  0  0  0  0  0  0  0
    8.4436   -6.5702   16.0639 C   0  0  0  0  0  0  0  0  0  0  0  0
    7.5345   -7.9941   17.3365 C   0  0  0  0  0  0  0  0  0  0  0  0
    5.6681   -7.7033   15.9669 C   0  0  0  0  0  0  0  0  0  0  0  0
    1.5645  -11.9340   20.4017 C   0  0  0  0  0  0  0  0  0  0  0  0
    3.2147  -10.6059   18.2628 C   0  0  0  0  0  0  0  0  0  0  0  0
    8.4408   -6.6826   17.4021 C   0  0  0  0  0  0  0  0  0  0  0  0
    4.6801   -8.8978   16.9471 N   0  0  0  0  0  0  0  0  0  0  0  0
    9.2844   -5.7285   18.1806 C   0  0  0  0  0  0  0  0  0  0  0  0
  1 34  4  0
  2 21  4  0
  4 22  4  0
  7 14  4  0
  9 14  4  0
 16 31  4  0
 19 24  1  0
 21 30  4  0
M  END
$$$$

 Created by Python create_sdf_string function

 34 44  0  0  0  0  0  0  0  0999 V2000
   10.2647   -5.1047   17.5982 S   0  0  0  0  0  0  0  0  0  0  0  0
    0.7864  -11.9382   21.7677 F   0  0  0  0  0  0  0  0  0  0  0  0
   11.4372   -4.6200   22.9257 C   0  0  0  0  0  0  0  0  0  0  0  0
   10.6942   -3.3889   17.2917 Cl  0  0  0  0  0  0  0  0  0  0  0  0
    6.0434   -8.2623   17.3846 N   0  0  0  0  0  0  0  0  0  0  0  0
    0.6417  -11.8116   18.4979 O   0  0  0  0  0  0  0  0  0  0  0  0
   11.5509   -3.7899   18.0876 C   0  0  0  0  0  0  0  0  0  0  0  0
    9.8364   -5.4820   19.9298 C   0  0  0  0  0  0  0  0  0  0  0  0
    1.5922   -9.1227   19.1392 Br  0  0  0  0  0  0  0  0  0  0  0  0
    2.5752   -8.4749   17.1798 F   0  0  0  0  0  0  0  0  0  0  0  0
    1.5064   -8.2572   17.0388 Cl  0  0  0  0  0  0  0  0  0  0  0  0
    6.6836   -8.6675   17.2422 N   0  0  0  0  0  0  0  0  0  0  0  0
    2.0875   -9.3003   16.6625 N   0  0  0  0  0  0  0  0  0  0  0  0
   11.1348   -3.5339   20.7222 C   0  0  0  0  0  0  0  0  0  0  0  0
    0.8628  -12.5189   20.1810 C   0  0  0  0  0  0  0  0  0  0  0  0
    3.1296  -11.3044   18.0949 Cl  0  0  0  0  0  0  0  0  0  0  0  0
    6.1383   -9.2728   17.8753 N   0  0  0  0  0  0  0  0  0  0  0  0
    4.7769   -6.3259   19.4093 He  0  0  0  0  0  0  0  0  0  0  0  0
    0.3820  -11.7843   17.2887 He  0  0  0  0  0  0  0  0  0  0  0  0
    2.4915   -9.7106   17.1890 He  0  0  0  0  0  0  0  0  0  0  0  0
   11.0596   -4.2554   20.4417 He  0  0  0  0  0  0  0  0  0  0  0  0
   11.6601   -4.1723   18.2533 He  0  0  0  0  0  0  0  0  0  0  0  0
    5.4207   -9.3027   18.3492 He  0  0  0  0  0  0  0  0  0  0  0  0
   12.0233   -2.7296   22.0260 He  0  0  0  0  0  0  0  0  0  0  0  0
   11.0241   -3.6337   19.0585 He  0  0  0  0  0  0  0  0  0  0  0  0
    1.7938  -12.3764   20.6199 He  0  0  0  0  0  0  0  0  0  0  0  0
    8.4667   -8.5144   17.9601 He  0  0  0  0  0  0  0  0  0  0  0  0
    8.8210   -8.0478   17.0740 He  0  0  0  0  0  0  0  0  0  0  0  0
   11.6237   -3.2287   21.9757 He  0  0  0  0  0  0  0  0  0  0  0  0
    7.5395   -6.6556   16.3781 He  0  0  0  0  0  0  0  0  0  0  0  0
    7.0460   -8.9553   17.4899 He  0  0  0  0  0  0  0  0  0  0  0  0
    5.5514   -7.0627   16.1687 He  0  0  0  0  0  0  0  0  0  0  0  0
    8.6547   -6.6550   19.4179 He  0  0  0  0  0  0  0  0  0  0  0  0
    9.3165   -5.5102   18.0579 He  0  0  0  0  0  0  0  0  0  0  0  0
  1  4  3  0
  1  6  2  0
  2  3  4  0
  2  6  3  0
  2  8  3  0
  2 10  2  0
  2 11  3  0
  2 12  1  0
  2 13  4  0
  2 16  2  0
  3  4  4  0
  3  5  3  0
  4  7  1  0
  4 10  2  0
  4 13  1  0
  4 15  3  0
  4 16  1  0
  5  9  2  0
  5 10  4  0
  6  7  4  0
  6  9  4  0
  6 11  3  0
  6 14  3  0
  6 15  3  0
  6 17  4  0
  7  9  3  0
  7 10  4  0
  7 12  1  0
  7 15  2  0
  8 11  3  0
  8 13  3  0
  8 15  2  0
  9 11  2  0
  9 13  3  0
 10 13  1  0
 10 16  3  0
 11 13  3  0
 11 14  1  0
 12 15  1  0
 12 17  1  0
 13 17  3  0
 14 16  2  0
 14 17  4  0
 16 17  3  0
M  END
$$$$

 Created by Python create_sdf_string function

 34 17  0  0  0  0  0  0  0  0999 V2000
    9.9290   -4.9950   17.1858 C   0  0  0  0  0  0  0  0  0  0  0  0
    0.9315  -12.0270   21.0304 C   0  0  0  0  0  0  0  0  0  0  0  0
    5.7735   -7.2828   18.6188 O   0  0  0  0  0  0  0  0  0  0  0  0
    0.4422  -11.2001   18.1100 C   0  0  0  0  0  0  0  0  0  0  0  0
    2.6699  -10.0346   17.6756 C   0  0  0  0  0  0  0  0  0  0  0  0
   11.0638   -4.2703   20.7923 C   0  0  0  0  0  0  0  0  0  0  0  0
   11.0486   -3.8879   18.0030 C   0  0  0  0  0  0  0  0  0  0  0  0
   11.2351   -4.4391   22.6015 C   0  0  0  0  0  0  0  0  0  0  0  0
   10.9443   -3.6981   16.9597 C   0  0  0  0  0  0  0  0  0  0  0  0
    5.0321   -9.6901   17.9561 C   0  0  0  0  0  0  0  0  0  0  0  0
    5.6106   -8.1800   17.0401 C   0  0  0  0  0  0  0  0  0  0  0  0
    0.7138  -11.4655   18.7674 C   0  0  0  0  0  0  0  0  0  0  0  0
   11.5801   -3.0413   22.0834 C   0  0  0  0  0  0  0  0  0  0  0  0
   11.0787   -3.7138   17.6083 C   0  0  0  0  0  0  0  0  0  0  0  0
   10.3928   -5.1266   19.6109 C   0  0  0  0  0  0  0  0  0  0  0  0
    1.7459  -10.5895   18.1862 C   0  0  0  0  0  0  0  0  0  0  0  0
    3.0418   -8.9297   16.7284 C   0  0  0  0  0  0  0  0  0  0  0  0
    1.8888   -9.0632   16.6183 C   0  0  0  0  0  0  0  0  0  0  0  0
    6.4857   -8.6783   17.4006 C   0  0  0  0  0  0  0  0  0  0  0  0
   10.9923   -3.9329   19.3535 C   0  0  0  0  0  0  0  0  0  0  0  0
    1.8974  -12.0449   20.1473 C   0  0  0  0  0  0  0  0  0  0  0  0
    2.2931   -9.2274   16.7496 C   0  0  0  0  0  0  0  0  0  0  0  0
   11.2530   -3.6197   20.9542 C   0  0  0  0  0  0  0  0  0  0  0  0
    8.3148   -8.1087   17.4669 C   0  0  0  0  0  0  0  0  0  0  0  0
    8.5160   -7.4162   16.8956 C   0  0  0  0  0  0  0  0  0  0  0  0
   11.4325   -3.5394   22.4517 C   0  0  0  0  0  0  0  0  0  0  0  0
    7.8195   -6.6038   16.5481 C   0  0  0  0  0  0  0  0  0  0  0  0
    6.8034   -8.6432   17.3914 C   0  0  0  0  0  0  0  0  0  0  0  0
    5.8242   -7.4560   16.3121 C   0  0  0  0  0  0  0  0  0  0  0  0
    0.9168  -12.0510   20.0591 C   0  0  0  0  0  0  0  0  0  0  0  0
    2.8905  -11.0931   18.7564 C   0  0  0  0  0  0  0  0  0  0  0  0
    9.3103   -6.3273   18.4799 C   0  0  0  0  0  0  0  0  0  0  0  0
    5.6693   -9.1193   17.6024 C   0  0  0  0  0  0  0  0  0  0  0  0
    9.4528   -5.7526   17.8672 C   0  0  0  0  0  0  0  0  0  0  0  0
  2 30  4  0
  4 12  4  0
  5 16  4  0
  5 31  4  0
  6 23  4  0
  7 14  4  0
  8 26  4  0
 11 29  1  0
 12 16  4  0
 13 23  4  0
 15 20  4  0
 17 22  4  0
 18 22  4  0
 19 33  1  0
 21 30  4  0
 24 25  1  0
 25 27  1  0
M  END
$$$$

 Created by Python create_sdf_string function

 34 97  0  0  0  0  0  0  0  0999 V2000
    9.8454   -4.6882   17.5583 N   0  0  0  0  0  0  0  0  0  0  0  0
    0.4758  -11.9162   21.9369 F   0  0  0  0  0  0  0  0  0  0  0  0
    5.1225   -6.5058   18.4058 S   0  0  0  0  0  0  0  0  0  0  0  0
    3.5941   -9.8816   17.4523 Br  0  0  0  0  0  0  0  0  0  0  0  0
   11.6460   -5.3648   18.0758 N   0  0  0  0  0  0  0  0  0  0  0  0
   11.6223   -2.8639   17.6874 C   0  0  0  0  0  0  0  0  0  0  0  0
    6.1991   -8.6204   19.7473 N   0  0  0  0  0  0  0  0  0  0  0  0
    5.1940   -7.7294   16.6971 O   0  0  0  0  0  0  0  0  0  0  0  0
   -0.7898  -12.9036   18.5255 C   0  0  0  0  0  0  0  0  0  0  0  0
   11.2716   -4.3753   18.1026 F   0  0  0  0  0  0  0  0  0  0  0  0
   10.1850   -3.9608   19.7293 Br  0  0  0  0  0  0  0  0  0  0  0  0
    2.5782   -9.2896   18.3236 C   0  0  0  0  0  0  0  0  0  0  0  0
    3.2409   -8.1479   16.7406 C   0  0  0  0  0  0  0  0  0  0  0  0
    1.5854   -7.3758   15.5809 O   0  0  0  0  0  0  0  0  0  0  0  0
    6.6003   -8.1295   17.5117 P   0  0  0  0  0  0  0  0  0  0  0  0
    8.9998   -4.7222   19.5434 F   0  0  0  0  0  0  0  0  0  0  0  0
    1.9862  -12.0478   19.9211 O   0  0  0  0  0  0  0  0  0  0  0  0
   11.8740   -4.1334   20.8672 C   0  0  0  0  0  0  0  0  0  0  0  0
    8.0052   -8.1757   18.0578 C   0  0  0  0  0  0  0  0  0  0  0  0
    7.4145   -7.8343   17.2556 C   0  0  0  0  0  0  0  0  0  0  0  0
    6.0038   -8.4235   18.6535 N   0  0  0  0  0  0  0  0  0  0  0  0
    5.2717   -6.9356   14.4785 N   0  0  0  0  0  0  0  0  0  0  0  0
    1.0762   -9.0573   19.3705 P   0  0  0  0  0  0  0  0  0  0  0  0
    8.7973   -4.6018   18.4457 C   0  0  0  0  0  0  0  0  0  0  0  0
    1.7378  -11.2595   16.1478 He  0  0  0  0  0  0  0  0  0  0  0  0
   11.2756   -4.4914   21.0267 He  0  0  0  0  0  0  0  0  0  0  0  0
   12.1976   -5.7543   21.7876 He  0  0  0  0  0  0  0  0  0  0  0  0
   12.7542   -2.6014   23.1800 He  0  0  0  0  0  0  0  0  0  0  0  0
    0.8859   -9.8426   17.8049 He  0  0  0  0  0  0  0  0  0  0  0  0
    8.8003   -8.4802   17.4799 He  0  0  0  0  0  0  0  0  0  0  0  0
   11.5437   -2.5012   23.2708 He  0  0  0  0  0  0  0  0  0  0  0  0
    0.6265  -12.9553   18.5906 He  0  0  0  0  0  0  0  0  0  0  0  0
    5.3983   -9.5549   17.5437 He  0  0  0  0  0  0  0  0  0  0  0  0
    9.5266   -5.3981   18.3037 He  0  0  0  0  0  0  0  0  0  0  0  0
  1  2  1  0
  1  4  1  0
  1  5  2  0
  1  9  3  0
  1 11  4  0
  1 14  2  0
  1 17  3  0
  1 18  3  0
  1 21  3  0
  1 22  4  0
  2  7  1  0
  2 10  4  0
  2 11  4  0
  2 19  1  0
  3  8  4  0
  3 13  3  0
  3 15  1  0
  3 17  4  0
  3 18  2  0
  3 19  2  0
  3 22  3  0
  4  9  3  0
  4 11  2  0
  4 16  4  0
  4 18  4  0
  4 20  1  0
  4 23  1  0
  5  6  4  0
  5 11  1  0
  5 13  4  0
  5 14  1  0
  5 17  4  0
  5 18  1  0
  5 22  1  0
  5 24  3  0
  6 10  2  0
  6 13  1  0
  6 16  3  0
  6 18  2  0
  6 20  2  0
  6 24  1  0
  7  8  4  0
  7  9  3  0
  7 10  4  0
  7 13  1  0
  7 14  1  0
  7 17  1  0
  7 18  3  0
  7 24  1  0
  8 13  3  0
  8 17  1  0
  8 21  3  0
  8 24  4  0
  9 13  3  0
  9 15  2  0
  9 17  2  0
  9 20  1  0
  9 24  4  0
 10 13  3  0
 10 21  4  0
 10 22  4  0
 10 24  4  0
 11 13  3  0
 11 15  1  0
 11 16  4  0
 11 17  1  0
 11 20  1  0
 11 21  2  0
 11 22  3  0
 11 23  4  0
 12 14  4  0
 12 16  1  0
 12 19  4  0
 12 20  1  0
 12 21  2  0
 12 24  3  0
 14 19  1  0
 14 20  3  0
 14 24  1  0
 15 20  2  0
 15 21  4  0
 15 24  1  0
 16 18  4  0
 16 21  2  0
 17 19  3  0
 17 20  2  0
 17 22  3  0
 17 23  2  0
 18 19  3  0
 18 20  2  0
 19 20  1  0
 19 23  2  0
 21 22  3  0
 21 23  2  0
 21 24  1  0
 22 23  4  0
 23 24  4  0
M  END
$$$$

 Created by Python create_sdf_string function

 34 10  0  0  0  0  0  0  0  0999 V2000
    9.8104   -4.9447   17.3856 C   0  0  0  0  0  0  0  0  0  0  0  0
    0.7058  -11.8629   20.7576 C   0  0  0  0  0  0  0  0  0  0  0  0
    5.6957   -7.5887   17.5829 C   0  0  0  0  0  0  0  0  0  0  0  0
    1.4092   -9.9657   16.9412 C   0  0  0  0  0  0  0  0  0  0  0  0
    3.4283   -9.8946   17.6657 C   0  0  0  0  0  0  0  0  0  0  0  0
   11.2996   -4.1673   21.1674 C   0  0  0  0  0  0  0  0  0  0  0  0
   11.0795   -4.9390   18.3487 C   0  0  0  0  0  0  0  0  0  0  0  0
   11.7797   -4.7646   21.9588 C   0  0  0  0  0  0  0  0  0  0  0  0
   11.2086   -3.5257   17.7696 C   0  0  0  0  0  0  0  0  0  0  0  0
    6.1062   -8.7961   18.7712 N   0  0  0  0  0  0  0  0  0  0  0  0
    4.8832   -7.8125   16.5618 C   0  0  0  0  0  0  0  0  0  0  0  0
   -0.0206  -12.1144   18.9480 C   0  0  0  0  0  0  0  0  0  0  0  0
   11.9372   -3.1906   22.8929 C   0  0  0  0  0  0  0  0  0  0  0  0
   11.0396   -4.0377   17.8347 C   0  0  0  0  0  0  0  0  0  0  0  0
   10.5721   -4.2204   20.0132 C   0  0  0  0  0  0  0  0  0  0  0  0
    2.5151   -9.7742   17.4551 C   0  0  0  0  0  0  0  0  0  0  0  0
    3.3614   -8.7748   16.5811 C   0  0  0  0  0  0  0  0  0  0  0  0
    2.1988   -8.3903   16.0534 C   0  0  0  0  0  0  0  0  0  0  0  0
    6.7758   -7.7717   17.1636 C   0  0  0  0  0  0  0  0  0  0  0  0
   10.1017   -4.6303   19.6709 C   0  0  0  0  0  0  0  0  0  0  0  0
    1.5393  -11.7185   19.7869 C   0  0  0  0  0  0  0  0  0  0  0  0
    1.1701  -10.4562   17.8706 C   0  0  0  0  0  0  0  0  0  0  0  0
   11.6249   -3.9178   21.4726 C   0  0  0  0  0  0  0  0  0  0  0  0
    8.2785   -7.8137   17.5850 C   0  0  0  0  0  0  0  0  0  0  0  0
    8.9442   -7.8935   17.5680 C   0  0  0  0  0  0  0  0  0  0  0  0
   11.4544   -3.2615   22.7892 C   0  0  0  0  0  0  0  0  0  0  0  0
    7.6395   -7.4722   16.8183 C   0  0  0  0  0  0  0  0  0  0  0  0
    6.2350   -8.4256   18.1561 C   0  0  0  0  0  0  0  0  0  0  0  0
    5.5201   -7.3485   15.5245 C   0  0  0  0  0  0  0  0  0  0  0  0
    0.5421  -12.2895   19.3615 C   0  0  0  0  0  0  0  0  0  0  0  0
    1.2343  -10.7632   18.8398 C   0  0  0  0  0  0  0  0  0  0  0  0
    9.5237   -5.2368   17.8541 C   0  0  0  0  0  0  0  0  0  0  0  0
    4.7454   -9.3462   17.6034 C   0  0  0  0  0  0  0  0  0  0  0  0
    9.6018   -5.8586   17.8958 C   0  0  0  0  0  0  0  0  0  0  0  0
  2 21  4  0
  5 33  4  0
  9 14  4  0
 12 30  4  0
 13 26  4  0
 15 20  4  0
 21 30  4  0
 22 31  4  0
 24 25  1  0
 24 27  1  0
M  END
$$$$

 Created by Python create_sdf_string function

 34 68  0  0  0  0  0  0  0  0999 V2000
   10.0604   -3.5341   17.8503 Se  0  0  0  0  0  0  0  0  0  0  0  0
    1.4252  -10.7395   17.1402 F   0  0  0  0  0  0  0  0  0  0  0  0
    1.7898   -8.5778   17.0608 F   0  0  0  0  0  0  0  0  0  0  0  0
   12.1857   -5.6445   23.4312 N   0  0  0  0  0  0  0  0  0  0  0  0
   11.2549   -3.5681   18.3414 F   0  0  0  0  0  0  0  0  0  0  0  0
    8.4564   -7.0410   19.8259 O   0  0  0  0  0  0  0  0  0  0  0  0
   -0.3256  -14.3796   19.7994 O   0  0  0  0  0  0  0  0  0  0  0  0
   11.3323   -3.9239   22.8436 C   0  0  0  0  0  0  0  0  0  0  0  0
   11.4679   -4.7055   19.8850 C   0  0  0  0  0  0  0  0  0  0  0  0
    3.9637   -7.8631   17.3653 S   0  0  0  0  0  0  0  0  0  0  0  0
    0.5524   -8.6339   15.3318 S   0  0  0  0  0  0  0  0  0  0  0  0
    5.7538   -6.6220   16.0942 N   0  0  0  0  0  0  0  0  0  0  0  0
    2.8639  -12.8329   20.2291 Cl  0  0  0  0  0  0  0  0  0  0  0  0
    1.3206  -10.8776   17.7660 C   0  0  0  0  0  0  0  0  0  0  0  0
    8.5124   -7.6108   17.4013 C   0  0  0  0  0  0  0  0  0  0  0  0
    8.1372   -8.2459   16.7410 C   0  0  0  0  0  0  0  0  0  0  0  0
    6.8516   -8.1889   18.0014 O   0  0  0  0  0  0  0  0  0  0  0  0
    4.5465   -9.4473   15.1877 C   0  0  0  0  0  0  0  0  0  0  0  0
    0.3789  -12.0823   19.5356 P   0  0  0  0  0  0  0  0  0  0  0  0
    9.4903   -5.1818   17.8819 C   0  0  0  0  0  0  0  0  0  0  0  0
   11.9443   -6.0082   17.7331 C   0  0  0  0  0  0  0  0  0  0  0  0
    0.1619  -12.2927   21.3008 He  0  0  0  0  0  0  0  0  0  0  0  0
    5.9138   -6.9100   16.6266 He  0  0  0  0  0  0  0  0  0  0  0  0
   12.8610   -4.2334   21.8463 He  0  0  0  0  0  0  0  0  0  0  0  0
   11.1956   -4.2337   17.6332 He  0  0  0  0  0  0  0  0  0  0  0  0
    5.2653   -7.5042   16.0535 He  0  0  0  0  0  0  0  0  0  0  0  0
    9.0158   -4.2085   19.7413 He  0  0  0  0  0  0  0  0  0  0  0  0
    1.6684   -7.3405   15.7878 He  0  0  0  0  0  0  0  0  0  0  0  0
   10.2078   -4.3149   18.7571 He  0  0  0  0  0  0  0  0  0  0  0  0
   12.5216   -5.3499   21.9295 He  0  0  0  0  0  0  0  0  0  0  0  0
    9.0916   -9.4815   18.3254 He  0  0  0  0  0  0  0  0  0  0  0  0
   11.7416   -2.8710   20.7138 He  0  0  0  0  0  0  0  0  0  0  0  0
    1.1148  -10.4968   19.0122 He  0  0  0  0  0  0  0  0  0  0  0  0
    4.2888  -10.1508   17.0115 He  0  0  0  0  0  0  0  0  0  0  0  0
  1  3  1  0
  1  7  4  0
  1 11  2  0
  1 13  2  0
  1 15  4  0
  1 18  2  0
  2  3  2  0
  2  7  4  0
  2  9  3  0
  2 11  2  0
  2 13  1  0
  2 17  2  0
  3 11  4  0
  3 12  3  0
  3 14  3  0
  3 17  4  0
  3 19  4  0
  4  5  1  0
  4  6  2  0
  4  8  3  0
  4 10  2  0
  4 11  2  0
  4 12  4  0
  4 14  2  0
  4 15  4  0
  4 20  3  0
  5  7  4  0
  5 16  2  0
  5 20  4  0
  5 21  4  0
  6  7  3  0
  6  8  4  0
  6 13  1  0
  6 18  2  0
  6 19  1  0
  6 21  2  0
  7  9  2  0
  7 12  1  0
  7 13  4  0
  7 14  3  0
  7 16  1  0
  7 20  4  0
  7 21  1  0
  8  9  2  0
  8 13  2  0
  8 14  1  0
  8 16  1  0
  9 10  4  0
  9 11  4  0
  9 16  3  0
  9 17  1  0
 10 11  3  0
 10 16  1  0
 11 13  4  0
 11 16  4  0
 11 21  4  0
 13 16  4  0
 13 18  4  0
 13 20  2  0
 14 15  1  0
 14 16  4  0
 14 19  1  0
 14 21  2  0
 15 16  3  0
 15 17  2  0
 16 19  2  0
 17 20  4  0
 18 19  4  0
M  END
$$$$

 Created by Python create_sdf_string function

 34 18  0  0  0  0  0  0  0  0999 V2000
   10.4669   -3.7762   17.1834 C   0  0  0  0  0  0  0  0  0  0  0  0
    0.5892  -12.0419   20.9149 C   0  0  0  0  0  0  0  0  0  0  0  0
    6.2491   -7.3733   16.7064 C   0  0  0  0  0  0  0  0  0  0  0  0
    1.5009  -10.3778   17.6432 C   0  0  0  0  0  0  0  0  0  0  0  0
    2.0218   -9.3708   16.8601 C   0  0  0  0  0  0  0  0  0  0  0  0
   12.7406   -4.7775   22.0073 C   0  0  0  0  0  0  0  0  0  0  0  0
   10.9808   -4.0537   17.4823 C   0  0  0  0  0  0  0  0  0  0  0  0
   12.1633   -4.8145   23.1527 C   0  0  0  0  0  0  0  0  0  0  0  0
   11.1275   -3.8318   18.0986 C   0  0  0  0  0  0  0  0  0  0  0  0
    9.3196   -7.0608   18.5073 C   0  0  0  0  0  0  0  0  0  0  0  0
    5.0841   -7.9603   16.4790 C   0  0  0  0  0  0  0  0  0  0  0  0
    0.1595  -13.1676   19.5257 O   0  0  0  0  0  0  0  0  0  0  0  0
   11.1922   -3.9852   22.5354 C   0  0  0  0  0  0  0  0  0  0  0  0
    9.7111   -4.6367   19.1225 C   0  0  0  0  0  0  0  0  0  0  0  0
   11.4518   -4.4437   20.3832 C   0  0  0  0  0  0  0  0  0  0  0  0
    2.1717   -8.1768   15.7458 C   0  0  0  0  0  0  0  0  0  0  0  0
    4.1561   -8.5631   16.8679 C   0  0  0  0  0  0  0  0  0  0  0  0
    1.2935   -9.0112   16.2276 C   0  0  0  0  0  0  0  0  0  0  0  0
    6.1495   -7.0451   16.3456 C   0  0  0  0  0  0  0  0  0  0  0  0
   10.8434   -4.3279   19.1349 C   0  0  0  0  0  0  0  0  0  0  0  0
    1.9603  -12.1234   19.8828 C   0  0  0  0  0  0  0  0  0  0  0  0
    1.2083  -10.8126   18.0695 C   0  0  0  0  0  0  0  0  0  0  0  0
   12.7226   -4.9052   21.8211 C   0  0  0  0  0  0  0  0  0  0  0  0
    8.1676   -7.5206   17.0553 C   0  0  0  0  0  0  0  0  0  0  0  0
    8.9111   -7.9455   17.7741 C   0  0  0  0  0  0  0  0  0  0  0  0
   11.2470   -3.6980   21.2096 C   0  0  0  0  0  0  0  0  0  0  0  0
    7.8610   -7.9962   16.4928 C   0  0  0  0  0  0  0  0  0  0  0  0
    6.5843   -8.1822   17.7947 O   0  0  0  0  0  0  0  0  0  0  0  0
    4.0108   -8.7014   15.8042 C   0  0  0  0  0  0  0  0  0  0  0  0
    0.5840  -12.1684   19.7665 C   0  0  0  0  0  0  0  0  0  0  0  0
    1.2592  -11.1995   18.8295 C   0  0  0  0  0  0  0  0  0  0  0  0
    9.6233   -5.4761   17.8297 C   0  0  0  0  0  0  0  0  0  0  0  0
    3.6729   -9.6759   17.4927 C   0  0  0  0  0  0  0  0  0  0  0  0
   10.9091   -5.9328   18.3248 C   0  0  0  0  0  0  0  0  0  0  0  0
  1  7  1  0
  2 30  4  0
  3 19  1  0
  4 22  4  0
  5 18  4  0
  6  8  4  0
  6 23  4  0
  7  9  4  0
  8 13  4  0
 10 25  1  0
 12 30  1  0
 13 26  4  0
 15 20  4  0
 15 26  4  0
 16 18  4  0
 17 33  4  0
 24 25  1  0
 24 27  1  0
M  END
$$$$

 Created by Python create_sdf_string function

 34 70  0  0  0  0  0  0  0  0999 V2000
   10.9727   -2.4020   18.0451 C   0  0  0  0  0  0  0  0  0  0  0  0
    1.0950  -11.5068   22.3564 C   0  0  0  0  0  0  0  0  0  0  0  0
    5.6776   -6.0837   16.2360 C   0  0  0  0  0  0  0  0  0  0  0  0
    1.1569   -9.0361   15.1557 P   0  0  0  0  0  0  0  0  0  0  0  0
   11.9463   -3.9541   22.8654 O   0  0  0  0  0  0  0  0  0  0  0  0
   10.7273   -4.2059   17.4534 C   0  0  0  0  0  0  0  0  0  0  0  0
   12.2644   -3.9515   18.0836 N   0  0  0  0  0  0  0  0  0  0  0  0
    9.7302   -5.1068   23.6395 C   0  0  0  0  0  0  0  0  0  0  0  0
    8.9410   -3.9875   19.9894 C   0  0  0  0  0  0  0  0  0  0  0  0
   10.6450   -2.8047   20.0540 N   0  0  0  0  0  0  0  0  0  0  0  0
    2.9380   -7.1287   15.6877 C   0  0  0  0  0  0  0  0  0  0  0  0
    7.0502   -7.3246   17.5278 N   0  0  0  0  0  0  0  0  0  0  0  0
   10.9578   -4.2468   19.4498 N   0  0  0  0  0  0  0  0  0  0  0  0
    0.7859  -10.5921   20.6421 C   0  0  0  0  0  0  0  0  0  0  0  0
    0.0992  -10.5561   17.6699 C   0  0  0  0  0  0  0  0  0  0  0  0
   11.2881   -2.9753   20.3733 C   0  0  0  0  0  0  0  0  0  0  0  0
    6.5320   -7.3209   16.8921 C   0  0  0  0  0  0  0  0  0  0  0  0
    4.8210   -8.8889   15.9628 C   0  0  0  0  0  0  0  0  0  0  0  0
    1.3362  -11.8058   18.6581 S   0  0  0  0  0  0  0  0  0  0  0  0
    2.2961  -11.2029   17.6284 N   0  0  0  0  0  0  0  0  0  0  0  0
   10.9904   -6.5981   17.9053 C   0  0  0  0  0  0  0  0  0  0  0  0
   -0.0184   -9.4704   18.1100 He  0  0  0  0  0  0  0  0  0  0  0  0
   12.9503   -4.6325   21.0768 He  0  0  0  0  0  0  0  0  0  0  0  0
    8.7850   -5.9276   17.8394 He  0  0  0  0  0  0  0  0  0  0  0  0
    4.3278   -7.5947   16.5210 He  0  0  0  0  0  0  0  0  0  0  0  0
   -1.4450  -13.8995   19.2332 He  0  0  0  0  0  0  0  0  0  0  0  0
    4.9670   -7.4521   16.2295 He  0  0  0  0  0  0  0  0  0  0  0  0
    0.8997   -7.8963   16.8696 He  0  0  0  0  0  0  0  0  0  0  0  0
   13.1949   -5.0346   22.2399 He  0  0  0  0  0  0  0  0  0  0  0  0
    7.2430   -6.8941   17.7027 He  0  0  0  0  0  0  0  0  0  0  0  0
    9.1851   -6.2041   18.3517 He  0  0  0  0  0  0  0  0  0  0  0  0
    5.8829   -7.3202   16.3435 He  0  0  0  0  0  0  0  0  0  0  0  0
   10.1794   -5.5461   16.8234 He  0  0  0  0  0  0  0  0  0  0  0  0
    2.1682   -8.6875   17.0651 He  0  0  0  0  0  0  0  0  0  0  0  0
  1  6  2  0
  1 10  3  0
  1 11  1  0
  1 12  4  0
  1 15  3  0
  1 18  1  0
  1 19  1  0
  1 20  1  0
  2  5  4  0
  2  8  4  0
  2 12  2  0
  2 16  4  0
  2 18  1  0
  2 19  4  0
  3  6  4  0
  3  9  3  0
  3 18  4  0
  3 20  2  0
  3 21  4  0
  4  6  1  0
  4  7  2  0
  4 14  3  0
  4 15  2  0
  4 19  4  0
  4 20  2  0
  5 10  4  0
  5 13  4  0
  5 16  4  0
  6  7  3  0
  6  8  1  0
  6 14  3  0
  6 15  2  0
  6 16  3  0
  6 19  3  0
  6 20  3  0
  7  8  2  0
  7 10  4  0
  7 13  4  0
  8  9  3  0
  8 11  4  0
  8 12  2  0
  8 14  1  0
  8 16  4  0
  8 20  1  0
  8 21  2  0
  9 14  3  0
  9 16  3  0
  9 20  4  0
  9 21  1  0
 10 11  4  0
 10 14  1  0
 10 19  4  0
 10 21  1  0
 11 14  4  0
 11 15  4  0
 11 17  1  0
 11 19  4  0
 11 21  1  0
 12 13  3  0
 12 21  2  0
 14 16  4  0
 14 17  3  0
 14 18  1  0
 14 19  3  0
 14 21  3  0
 15 18  3  0
 15 19  1  0
 17 20  1  0
 17 21  1  0
 19 20  1  0
M  END
$$$$

 Created by Python create_sdf_string function

 34  7  0  0  0  0  0  0  0  0999 V2000
   11.1549   -3.2332   17.5209 C   0  0  0  0  0  0  0  0  0  0  0  0
    0.8971  -11.7516   20.9781 C   0  0  0  0  0  0  0  0  0  0  0  0
    5.9095   -7.1263   15.9395 C   0  0  0  0  0  0  0  0  0  0  0  0
    0.4914  -10.2325   17.7541 C   0  0  0  0  0  0  0  0  0  0  0  0
    1.0849   -9.1355   16.0642 C   0  0  0  0  0  0  0  0  0  0  0  0
   11.7971   -4.0376   22.7106 C   0  0  0  0  0  0  0  0  0  0  0  0
   10.7586   -4.1168   17.1547 C   0  0  0  0  0  0  0  0  0  0  0  0
   12.5792   -4.7926   21.5078 C   0  0  0  0  0  0  0  0  0  0  0  0
   11.3521   -3.9464   18.1436 C   0  0  0  0  0  0  0  0  0  0  0  0
    8.9193   -6.3970   17.7645 C   0  0  0  0  0  0  0  0  0  0  0  0
    4.0520   -8.1555   16.6308 C   0  0  0  0  0  0  0  0  0  0  0  0
   -0.4319  -12.4656   19.4786 C   0  0  0  0  0  0  0  0  0  0  0  0
   11.1891   -4.2451   22.9428 C   0  0  0  0  0  0  0  0  0  0  0  0
   10.1148   -4.4816   19.7705 C   0  0  0  0  0  0  0  0  0  0  0  0
   11.1650   -3.6610   20.4170 C   0  0  0  0  0  0  0  0  0  0  0  0
    2.9474   -7.9938   16.0613 C   0  0  0  0  0  0  0  0  0  0  0  0
    4.4712   -7.9738   16.3896 C   0  0  0  0  0  0  0  0  0  0  0  0
    0.8960   -8.6738   16.6182 C   0  0  0  0  0  0  0  0  0  0  0  0
    7.6909   -7.3724   17.4748 C   0  0  0  0  0  0  0  0  0  0  0  0
   11.1856   -4.4678   19.5378 C   0  0  0  0  0  0  0  0  0  0  0  0
    0.5539  -11.2506   19.9335 C   0  0  0  0  0  0  0  0  0  0  0  0
    0.4924  -10.5933   17.9583 C   0  0  0  0  0  0  0  0  0  0  0  0
   12.8815   -4.8246   22.2530 C   0  0  0  0  0  0  0  0  0  0  0  0
    7.6789   -7.0773   17.4925 C   0  0  0  0  0  0  0  0  0  0  0  0
    9.2825   -6.2317   17.9000 C   0  0  0  0  0  0  0  0  0  0  0  0
   11.3462   -3.7453   21.0400 C   0  0  0  0  0  0  0  0  0  0  0  0
    6.7801   -7.6525   16.9282 C   0  0  0  0  0  0  0  0  0  0  0  0
    6.0552   -7.7168   16.6315 C   0  0  0  0  0  0  0  0  0  0  0  0
    4.6220   -8.3209   16.1846 C   0  0  0  0  0  0  0  0  0  0  0  0
    1.0715  -11.6569   19.2491 C   0  0  0  0  0  0  0  0  0  0  0  0
    1.7130  -10.9339   18.5506 C   0  0  0  0  0  0  0  0  0  0  0  0
   10.0111   -4.8280   16.9534 C   0  0  0  0  0  0  0  0  0  0  0  0
    2.1274   -9.0127   16.7604 C   0  0  0  0  0  0  0  0  0  0  0  0
   10.3421   -6.2437   18.4799 C   0  0  0  0  0  0  0  0  0  0  0  0
  1  7  4  0
  4 22  4  0
  6 13  4  0
  8 23  4  0
 10 25  4  0
 15 26  4  0
 30 31  4  0
M  END
$$$$

 Created by Python create_sdf_string function

 34 76  0  0  0  0  0  0  0  0999 V2000
   11.0342   -1.6300   15.7520 C   0  0  0  0  0  0  0  0  0  0  0  0
    0.3274  -11.2940   21.6022 C   0  0  0  0  0  0  0  0  0  0  0  0
    5.5312   -5.6624   16.0911 C   0  0  0  0  0  0  0  0  0  0  0  0
    0.8476  -10.6279   18.2822 C   0  0  0  0  0  0  0  0  0  0  0  0
   10.7529   -4.8827   22.3513 C   0  0  0  0  0  0  0  0  0  0  0  0
   10.7295   -4.4078   16.6006 N   0  0  0  0  0  0  0  0  0  0  0  0
   11.8357   -4.2338   20.9659 C   0  0  0  0  0  0  0  0  0  0  0  0
    9.3256   -5.8318   18.1617 P   0  0  0  0  0  0  0  0  0  0  0  0
    2.6761   -7.8992   15.3779 F   0  0  0  0  0  0  0  0  0  0  0  0
    3.9708   -8.2800   15.5670 N   0  0  0  0  0  0  0  0  0  0  0  0
    7.3721   -7.6696   16.4015 C   0  0  0  0  0  0  0  0  0  0  0  0
   12.3000   -4.5389   19.5237 C   0  0  0  0  0  0  0  0  0  0  0  0
    0.9517  -11.7491   20.6284 Br  0  0  0  0  0  0  0  0  0  0  0  0
    6.9841   -6.9596   17.2766 Cl  0  0  0  0  0  0  0  0  0  0  0  0
   11.5693   -2.7910   21.2064 C   0  0  0  0  0  0  0  0  0  0  0  0
    6.5627   -9.0654   17.9646 C   0  0  0  0  0  0  0  0  0  0  0  0
    5.1925   -8.0669   16.4246 N   0  0  0  0  0  0  0  0  0  0  0  0
    9.6217   -5.5312   16.9695 C   0  0  0  0  0  0  0  0  0  0  0  0
    1.7374   -9.1283   17.7427 N   0  0  0  0  0  0  0  0  0  0  0  0
    9.7459   -5.5912   19.8003 O   0  0  0  0  0  0  0  0  0  0  0  0
    1.8754   -9.8447   15.4350 He  0  0  0  0  0  0  0  0  0  0  0  0
    9.7448   -2.6659   17.8256 He  0  0  0  0  0  0  0  0  0  0  0  0
    5.2708   -8.8345   16.6035 He  0  0  0  0  0  0  0  0  0  0  0  0
   -0.8257  -13.2597   17.9612 He  0  0  0  0  0  0  0  0  0  0  0  0
   12.1600   -4.7718   22.0709 He  0  0  0  0  0  0  0  0  0  0  0  0
    9.2276   -4.8372   20.9985 He  0  0  0  0  0  0  0  0  0  0  0  0
   10.7514   -2.6921   19.0132 He  0  0  0  0  0  0  0  0  0  0  0  0
    1.0560   -8.9157   16.4725 He  0  0  0  0  0  0  0  0  0  0  0  0
    0.8286  -11.1689   16.8796 He  0  0  0  0  0  0  0  0  0  0  0  0
   12.5935   -4.0011   21.7615 He  0  0  0  0  0  0  0  0  0  0  0  0
    9.2626   -7.0706   17.0087 He  0  0  0  0  0  0  0  0  0  0  0  0
    5.4896   -7.7443   18.4528 He  0  0  0  0  0  0  0  0  0  0  0  0
    0.0278  -12.4000   19.1275 He  0  0  0  0  0  0  0  0  0  0  0  0
   -1.5350   -9.7294   18.2175 He  0  0  0  0  0  0  0  0  0  0  0  0
  1  3  3  0
  1  5  3  0
  1  8  1  0
  1  9  3  0
  1 10  1  0
  1 12  4  0
  1 16  4  0
  2  3  3  0
  2  4  1  0
  2  6  1  0
  2  7  3  0
  2 10  3  0
  2 12  3  0
  2 13  4  0
  2 14  2  0
  2 16  4  0
  2 19  2  0
  2 20  3  0
  3  8  2  0
  3  9  1  0
  3 10  4  0
  3 12  3  0
  3 13  4  0
  3 14  2  0
  3 15  4  0
  3 19  3  0
  3 20  4  0
  4  5  3  0
  4  6  1  0
  4 14  3  0
  4 15  3  0
  4 20  3  0
  5  8  2  0
  5 10  2  0
  5 11  1  0
  5 12  4  0
  5 13  3  0
  5 14  4  0
  5 20  2  0
  6  9  1  0
  6 11  1  0
  6 13  3  0
  6 14  4  0
  6 16  3  0
  6 19  2  0
  7  9  1  0
  7 10  1  0
  7 17  4  0
  8 10  4  0
  8 15  3  0
  9 10  1  0
  9 13  2  0
  9 14  1  0
  9 16  4  0
  9 17  3  0
  9 18  1  0
  9 20  4  0
 10 11  1  0
 10 12  3  0
 10 13  3  0
 10 15  4  0
 10 19  3  0
 10 20  3  0
 11 13  3  0
 11 15  4  0
 11 17  1  0
 11 19  3  0
 12 16  3  0
 12 18  1  0
 12 19  3  0
 13 15  1  0
 13 19  1  0
 15 16  4  0
 15 17  4  0
 16 20  4  0
 17 19  4  0
M  END
$$$$

 Created by Python create_sdf_string function

 34 13  0  0  0  0  0  0  0  0999 V2000
   11.2671   -3.3686   16.3182 C   0  0  0  0  0  0  0  0  0  0  0  0
    0.4544  -11.4410   20.5391 C   0  0  0  0  0  0  0  0  0  0  0  0
    6.0955   -7.0808   15.8007 C   0  0  0  0  0  0  0  0  0  0  0  0
    1.0316  -10.7123   18.2120 C   0  0  0  0  0  0  0  0  0  0  0  0
    1.4598   -9.4854   15.8440 C   0  0  0  0  0  0  0  0  0  0  0  0
   11.1985   -4.5849   22.1450 C   0  0  0  0  0  0  0  0  0  0  0  0
   10.6232   -4.2685   16.6377 N   0  0  0  0  0  0  0  0  0  0  0  0
   12.1448   -4.2642   21.3405 C   0  0  0  0  0  0  0  0  0  0  0  0
   10.5768   -3.8045   17.5732 C   0  0  0  0  0  0  0  0  0  0  0  0
    9.2814   -6.1735   17.9006 C   0  0  0  0  0  0  0  0  0  0  0  0
    5.4398   -8.3125   16.9633 C   0  0  0  0  0  0  0  0  0  0  0  0
   -0.5162  -12.3901   18.4843 C   0  0  0  0  0  0  0  0  0  0  0  0
   12.1266   -4.4253   22.1106 C   0  0  0  0  0  0  0  0  0  0  0  0
   10.3492   -4.9994   20.0942 C   0  0  0  0  0  0  0  0  0  0  0  0
   10.9548   -3.3894   18.4637 C   0  0  0  0  0  0  0  0  0  0  0  0
    2.8453   -8.3578   15.8746 C   0  0  0  0  0  0  0  0  0  0  0  0
    3.4235   -8.4841   16.0968 C   0  0  0  0  0  0  0  0  0  0  0  0
    1.4767   -8.9962   16.5347 C   0  0  0  0  0  0  0  0  0  0  0  0
    7.2537   -7.6995   16.2129 C   0  0  0  0  0  0  0  0  0  0  0  0
   11.3593   -4.4079   20.0509 C   0  0  0  0  0  0  0  0  0  0  0  0
    0.9538  -11.5685   20.1380 C   0  0  0  0  0  0  0  0  0  0  0  0
    0.6196  -10.5235   17.5175 C   0  0  0  0  0  0  0  0  0  0  0  0
   12.3647   -3.8429   22.3738 C   0  0  0  0  0  0  0  0  0  0  0  0
    7.4896   -7.1255   17.1510 C   0  0  0  0  0  0  0  0  0  0  0  0
    8.8706   -6.8475   17.4995 C   0  0  0  0  0  0  0  0  0  0  0  0
   11.5952   -3.2534   20.7876 C   0  0  0  0  0  0  0  0  0  0  0  0
    7.0265   -8.2400   17.5137 C   0  0  0  0  0  0  0  0  0  0  0  0
    5.7546   -7.8685   17.6556 C   0  0  0  0  0  0  0  0  0  0  0  0
    4.7441   -8.3470   16.3889 N   0  0  0  0  0  0  0  0  0  0  0  0
   -0.3104  -12.1471   19.3493 C   0  0  0  0  0  0  0  0  0  0  0  0
   -0.6553  -10.7506   18.4356 C   0  0  0  0  0  0  0  0  0  0  0  0
    9.6712   -5.0888   16.9724 C   0  0  0  0  0  0  0  0  0  0  0  0
    2.0817   -9.7881   17.3632 N   0  0  0  0  0  0  0  0  0  0  0  0
    9.9983   -5.4153   19.1683 C   0  0  0  0  0  0  0  0  0  0  0  0
  1  7  4  0
  2 21  4  0
  4 22  4  0
  7 32  4  0
  8 13  4  0
  9 15  4  0
  9 32  4  0
 10 25  4  0
 11 28  4  0
 11 29  1  0
 12 30  4  0
 14 34  4  0
 16 17  1  0
M  END
$$$$

 Created by Python create_sdf_string function

 34 62  0  0  0  0  0  0  0  0999 V2000
   12.3595   -4.1562   16.2553 O   0  0  0  0  0  0  0  0  0  0  0  0
    6.7958   -5.7180   16.3732 C   0  0  0  0  0  0  0  0  0  0  0  0
    1.6479  -10.2701   18.0874 C   0  0  0  0  0  0  0  0  0  0  0  0
    8.9381   -4.1103   16.4187 F   0  0  0  0  0  0  0  0  0  0  0  0
   10.9908   -4.2065   22.6783 C   0  0  0  0  0  0  0  0  0  0  0  0
    9.6436   -6.0937   16.8558 S   0  0  0  0  0  0  0  0  0  0  0  0
   -0.0443  -10.9953   17.6441 C   0  0  0  0  0  0  0  0  0  0  0  0
    3.2302   -9.0043   16.1178 I   0  0  0  0  0  0  0  0  0  0  0  0
    0.5588   -8.7674   17.4629 C   0  0  0  0  0  0  0  0  0  0  0  0
    7.5092   -6.6410   15.8317 S   0  0  0  0  0  0  0  0  0  0  0  0
   11.5079   -3.8526   19.6600 P   0  0  0  0  0  0  0  0  0  0  0  0
    0.6392  -12.9870   17.5678 C   0  0  0  0  0  0  0  0  0  0  0  0
   13.7106   -4.4374   21.6841 F   0  0  0  0  0  0  0  0  0  0  0  0
   12.4121   -3.4479   22.2545 P   0  0  0  0  0  0  0  0  0  0  0  0
    5.9774   -7.8370   16.8657 Se  0  0  0  0  0  0  0  0  0  0  0  0
    4.2296   -8.1890   15.9305 N   0  0  0  0  0  0  0  0  0  0  0  0
    0.2280  -12.2031   17.2979 P   0  0  0  0  0  0  0  0  0  0  0  0
   -2.0687  -10.9738   17.2914 S   0  0  0  0  0  0  0  0  0  0  0  0
    8.7759   -3.8744   17.3271 Br  0  0  0  0  0  0  0  0  0  0  0  0
    0.5859  -12.3295   19.2100 He  0  0  0  0  0  0  0  0  0  0  0  0
    1.8155  -10.0973   17.1194 He  0  0  0  0  0  0  0  0  0  0  0  0
   12.1372   -5.6881   21.5687 He  0  0  0  0  0  0  0  0  0  0  0  0
   10.8988   -3.5244   18.1153 He  0  0  0  0  0  0  0  0  0  0  0  0
    4.6335   -7.1701   16.4704 He  0  0  0  0  0  0  0  0  0  0  0  0
   11.1298   -4.7333   21.5743 He  0  0  0  0  0  0  0  0  0  0  0  0
   11.0622   -5.5543   20.4932 He  0  0  0  0  0  0  0  0  0  0  0  0
   10.6764   -4.0911   19.5152 He  0  0  0  0  0  0  0  0  0  0  0  0
    4.3386   -7.8928   13.7643 He  0  0  0  0  0  0  0  0  0  0  0  0
    1.8326  -11.3844   19.1811 He  0  0  0  0  0  0  0  0  0  0  0  0
    8.0337   -7.7552   18.0643 He  0  0  0  0  0  0  0  0  0  0  0  0
    8.7922   -6.7767   18.1598 He  0  0  0  0  0  0  0  0  0  0  0  0
    5.1544   -8.1620   17.0306 He  0  0  0  0  0  0  0  0  0  0  0  0
    2.2795   -9.6393   18.3021 He  0  0  0  0  0  0  0  0  0  0  0  0
   10.9997   -4.0025   18.9646 He  0  0  0  0  0  0  0  0  0  0  0  0
  1  2  2  0
  1  3  1  0
  1  5  3  0
  1  6  1  0
  1  8  1  0
  1 16  2  0
  1 17  4  0
  2  3  3  0
  2  4  2  0
  2 13  1  0
  2 14  3  0
  2 18  3  0
  3  4  3  0
  3  5  1  0
  3  9  1  0
  3 13  4  0
  3 14  1  0
  3 15  3  0
  3 19  2  0
  4  6  3  0
  4  8  2  0
  4  9  4  0
  4 10  4  0
  4 11  1  0
  4 13  4  0
  4 16  1  0
  4 18  4  0
  5 12  4  0
  5 17  1  0
  6 11  3  0
  6 12  3  0
  6 13  3  0
  6 15  3  0
  6 16  2  0
  6 18  1  0
  6 19  2  0
  7  8  1  0
  7  9  2  0
  7 10  1  0
  7 11  3  0
  7 12  2  0
  7 14  2  0
  8 11  1  0
  8 14  1  0
  8 15  4  0
  8 16  3  0
  8 19  3  0
  9 10  3  0
  9 12  1  0
  9 15  2  0
  9 17  1  0
  9 19  1  0
 10 15  4  0
 10 18  4  0
 12 14  2  0
 12 16  1  0
 12 18  3  0
 13 17  4  0
 13 19  2  0
 15 16  2  0
 15 19  4  0
 17 18  1  0
M  END
$$$$

 Created by Python create_sdf_string function

 34  9  0  0  0  0  0  0  0  0999 V2000
   11.3256   -3.6659   16.8753 C   0  0  0  0  0  0  0  0  0  0  0  0
    0.9085  -11.9640   19.1361 C   0  0  0  0  0  0  0  0  0  0  0  0
    7.3459   -6.3687   16.0075 C   0  0  0  0  0  0  0  0  0  0  0  0
    1.4897  -10.4365   17.7868 C   0  0  0  0  0  0  0  0  0  0  0  0
    1.9575   -9.5586   17.0100 C   0  0  0  0  0  0  0  0  0  0  0  0
   12.2303   -4.7552   21.7331 C   0  0  0  0  0  0  0  0  0  0  0  0
    9.2288   -4.6499   16.2969 C   0  0  0  0  0  0  0  0  0  0  0  0
   11.4278   -3.9452   22.6921 C   0  0  0  0  0  0  0  0  0  0  0  0
   10.7646   -3.9740   17.8684 C   0  0  0  0  0  0  0  0  0  0  0  0
    9.2648   -5.8625   17.4131 C   0  0  0  0  0  0  0  0  0  0  0  0
    5.2829   -7.7890   16.4995 C   0  0  0  0  0  0  0  0  0  0  0  0
    0.1710  -10.9806   17.5509 C   0  0  0  0  0  0  0  0  0  0  0  0
   11.3390   -4.3929   21.2781 C   0  0  0  0  0  0  0  0  0  0  0  0
   11.0326   -5.0936   20.2039 C   0  0  0  0  0  0  0  0  0  0  0  0
   10.7898   -4.2170   19.2731 C   0  0  0  0  0  0  0  0  0  0  0  0
    4.2795   -7.9652   15.1170 C   0  0  0  0  0  0  0  0  0  0  0  0
    3.0157   -8.7528   16.3772 C   0  0  0  0  0  0  0  0  0  0  0  0
    0.9344   -9.5699   16.8854 C   0  0  0  0  0  0  0  0  0  0  0  0
    7.3875   -6.5361   16.0760 C   0  0  0  0  0  0  0  0  0  0  0  0
   11.3525   -3.7998   20.1401 C   0  0  0  0  0  0  0  0  0  0  0  0
    1.6651  -11.4513   18.9637 C   0  0  0  0  0  0  0  0  0  0  0  0
   -0.1321  -12.4672   18.0433 C   0  0  0  0  0  0  0  0  0  0  0  0
   13.2103   -4.5788   22.2990 C   0  0  0  0  0  0  0  0  0  0  0  0
    8.0293   -7.7840   17.7325 C   0  0  0  0  0  0  0  0  0  0  0  0
    8.8854   -6.8041   17.7485 C   0  0  0  0  0  0  0  0  0  0  0  0
   12.2869   -3.6321   22.4923 C   0  0  0  0  0  0  0  0  0  0  0  0
    6.4925   -7.7669   16.8695 C   0  0  0  0  0  0  0  0  0  0  0  0
    5.2019   -8.4091   17.0746 C   0  0  0  0  0  0  0  0  0  0  0  0
    4.3375   -8.3561   16.5487 N   0  0  0  0  0  0  0  0  0  0  0  0
   -0.4842  -11.9225   17.4846 C   0  0  0  0  0  0  0  0  0  0  0  0
   -1.2951  -11.3390   16.9580 C   0  0  0  0  0  0  0  0  0  0  0  0
    9.5772   -4.5408   16.8518 C   0  0  0  0  0  0  0  0  0  0  0  0
    2.8924   -9.8940   17.6244 C   0  0  0  0  0  0  0  0  0  0  0  0
   10.8920   -4.3342   18.8406 C   0  0  0  0  0  0  0  0  0  0  0  0
  2 21  4  0
  3 19  4  0
  5 17  4  0
  9 34  4  0
 10 25  4  0
 11 29  1  0
 22 30  4  0
 24 25  4  0
 30 31  1  0
M  END
$$$$

 Created by Python create_sdf_string function

 34 55  0  0  0  0  0  0  0  0999 V2000
   11.4826   -3.5288   17.1806 F   0  0  0  0  0  0  0  0  0  0  0  0
    2.1478  -10.8752   17.0610 S   0  0  0  0  0  0  0  0  0  0  0  0
    0.7975   -8.7342   17.3545 C   0  0  0  0  0  0  0  0  0  0  0  0
   10.0482   -4.9077   17.8713 F   0  0  0  0  0  0  0  0  0  0  0  0
    6.9962   -5.9486   17.6901 C   0  0  0  0  0  0  0  0  0  0  0  0
   -0.3831  -11.7766   15.9222 C   0  0  0  0  0  0  0  0  0  0  0  0
   11.6680   -5.4453   21.5816 F   0  0  0  0  0  0  0  0  0  0  0  0
   12.0923   -2.4308   18.5887 F   0  0  0  0  0  0  0  0  0  0  0  0
    6.3589   -8.1916   14.1567 C   0  0  0  0  0  0  0  0  0  0  0  0
    2.3077  -10.5685   16.1317 C   0  0  0  0  0  0  0  0  0  0  0  0
    9.5972   -8.3581   17.1882 N   0  0  0  0  0  0  0  0  0  0  0  0
    7.7816   -6.4182   16.9762 N   0  0  0  0  0  0  0  0  0  0  0  0
    6.5833   -7.7758   16.0624 C   0  0  0  0  0  0  0  0  0  0  0  0
    0.3739  -13.0698   15.9647 P   0  0  0  0  0  0  0  0  0  0  0  0
    0.0618  -12.0843   17.1564 C   0  0  0  0  0  0  0  0  0  0  0  0
    9.3398   -5.0883   16.6328 O   0  0  0  0  0  0  0  0  0  0  0  0
   12.6253   -3.4020   18.8003 C   0  0  0  0  0  0  0  0  0  0  0  0
    0.4398  -13.3087   20.4977 He  0  0  0  0  0  0  0  0  0  0  0  0
    7.1720   -5.6518   16.3135 He  0  0  0  0  0  0  0  0  0  0  0  0
   12.9675   -3.7840   22.5554 He  0  0  0  0  0  0  0  0  0  0  0  0
    8.6995   -4.4192   17.7280 He  0  0  0  0  0  0  0  0  0  0  0  0
   11.5567   -2.3454   23.5835 He  0  0  0  0  0  0  0  0  0  0  0  0
    5.0856   -7.4035   16.1023 He  0  0  0  0  0  0  0  0  0  0  0  0
    9.0873   -4.8873   18.5543 He  0  0  0  0  0  0  0  0  0  0  0  0
    3.9752   -9.6468   16.6627 He  0  0  0  0  0  0  0  0  0  0  0  0
    7.7724   -6.7089   17.5467 He  0  0  0  0  0  0  0  0  0  0  0  0
   12.9175   -4.4052   18.5160 He  0  0  0  0  0  0  0  0  0  0  0  0
    0.4793  -12.7867   19.2090 He  0  0  0  0  0  0  0  0  0  0  0  0
   -0.5831  -13.8092   18.9406 He  0  0  0  0  0  0  0  0  0  0  0  0
   12.2350   -4.2109   22.2278 He  0  0  0  0  0  0  0  0  0  0  0  0
   11.5126   -2.8900   22.9109 He  0  0  0  0  0  0  0  0  0  0  0  0
    4.5718   -8.7648   16.5145 He  0  0  0  0  0  0  0  0  0  0  0  0
    4.9907   -7.2953   17.4506 He  0  0  0  0  0  0  0  0  0  0  0  0
    1.5850   -9.5576   17.6051 He  0  0  0  0  0  0  0  0  0  0  0  0
  1  6  4  0
  1  8  2  0
  1 11  4  0
  1 12  4  0
  1 15  3  0
  1 16  4  0
  1 17  3  0
  2  5  3  0
  2  7  2  0
  2 13  4  0
  2 16  2  0
  3  5  1  0
  3  6  2  0
  3  8  2  0
  3 10  3  0
  3 11  1  0
  3 13  3  0
  4  6  3  0
  4  7  2  0
  4 13  1  0
  4 17  1  0
  5  9  2  0
  5 15  1  0
  6  8  2  0
  6  9  4  0
  6 11  1  0
  6 14  2  0
  6 16  3  0
  7  8  3  0
  7 10  4  0
  7 12  4  0
  7 13  1  0
  7 16  1  0
  8 10  4  0
  8 11  3  0
  8 13  2  0
  8 14  4  0
  8 15  3  0
  8 17  3  0
  9 12  4  0
  9 14  1  0
 10 11  3  0
 10 13  2  0
 10 14  3  0
 10 16  3  0
 11 12  4  0
 11 14  3  0
 11 15  2  0
 11 16  3  0
 12 14  2  0
 12 17  2  0
 13 14  1  0
 14 17  3  0
 15 16  2  0
 16 17  1  0
M  END
$$$$

 Created by Python create_sdf_string function

 34 15  0  0  0  0  0  0  0  0999 V2000
   11.1550   -3.7396   17.3155 C   0  0  0  0  0  0  0  0  0  0  0  0
    0.5290  -12.8220   19.3906 C   0  0  0  0  0  0  0  0  0  0  0  0
    7.4485   -5.9021   15.9379 C   0  0  0  0  0  0  0  0  0  0  0  0
    1.6374  -10.7328   17.8988 C   0  0  0  0  0  0  0  0  0  0  0  0
    1.3333   -9.2246   16.7632 C   0  0  0  0  0  0  0  0  0  0  0  0
   12.5928   -3.7342   22.4815 C   0  0  0  0  0  0  0  0  0  0  0  0
    9.2842   -5.1811   17.3810 C   0  0  0  0  0  0  0  0  0  0  0  0
   11.5329   -2.9517   23.1002 C   0  0  0  0  0  0  0  0  0  0  0  0
   10.1196   -4.9060   18.0818 C   0  0  0  0  0  0  0  0  0  0  0  0
    6.8168   -6.9165   17.3444 C   0  0  0  0  0  0  0  0  0  0  0  0
    5.1725   -7.8873   16.4890 C   0  0  0  0  0  0  0  0  0  0  0  0
   -0.2762  -11.6302   16.8892 C   0  0  0  0  0  0  0  0  0  0  0  0
   11.4915   -4.6179   21.2168 C   0  0  0  0  0  0  0  0  0  0  0  0
    9.8299   -5.2092   18.8040 C   0  0  0  0  0  0  0  0  0  0  0  0
   11.4098   -3.2157   18.9829 C   0  0  0  0  0  0  0  0  0  0  0  0
    6.3673   -8.4592   15.5916 C   0  0  0  0  0  0  0  0  0  0  0  0
    3.3830   -9.2673   16.9564 C   0  0  0  0  0  0  0  0  0  0  0  0
    2.0591   -9.4750   16.6198 C   0  0  0  0  0  0  0  0  0  0  0  0
    8.2643   -6.9786   17.3218 C   0  0  0  0  0  0  0  0  0  0  0  0
   11.8281   -4.4899   19.4483 C   0  0  0  0  0  0  0  0  0  0  0  0
    0.5304  -12.5589   18.9251 C   0  0  0  0  0  0  0  0  0  0  0  0
   -0.3283  -13.3707   18.4516 C   0  0  0  0  0  0  0  0  0  0  0  0
   11.9147   -4.0742   21.9240 C   0  0  0  0  0  0  0  0  0  0  0  0
    8.9977   -8.0296   17.3493 C   0  0  0  0  0  0  0  0  0  0  0  0
    7.9454   -6.6877   17.0317 N   0  0  0  0  0  0  0  0  0  0  0  0
   11.4681   -3.0981   22.8249 C   0  0  0  0  0  0  0  0  0  0  0  0
    6.7277   -8.0852   16.0755 C   0  0  0  0  0  0  0  0  0  0  0  0
    4.0799   -8.6782   16.4573 C   0  0  0  0  0  0  0  0  0  0  0  0
    5.0597   -7.9210   17.1405 C   0  0  0  0  0  0  0  0  0  0  0  0
   -0.6097  -12.4778   17.0846 C   0  0  0  0  0  0  0  0  0  0  0  0
    0.2584  -11.4065   17.5098 C   0  0  0  0  0  0  0  0  0  0  0  0
    9.8030   -4.6695   16.6756 C   0  0  0  0  0  0  0  0  0  0  0  0
    1.7323  -10.1628   17.4366 C   0  0  0  0  0  0  0  0  0  0  0  0
   11.4122   -4.1239   19.4910 C   0  0  0  0  0  0  0  0  0  0  0  0
  1 32  4  0
  2 21  4  0
  4 33  4  0
  5 18  4  0
  8 26  2  0
  9 14  4  0
 11 29  1  0
 12 30  4  0
 12 31  4  0
 13 23  4  0
 16 27  1  0
 19 24  1  0
 19 25  1  0
 20 34  4  0
 21 22  4  0
M  END
$$$$

 Created by Python create_sdf_string function

 34 68  0  0  0  0  0  0  0  0999 V2000
   11.9163   -3.2939   18.7249 C   0  0  0  0  0  0  0  0  0  0  0  0
    8.5863   -6.8386   15.3759 S   0  0  0  0  0  0  0  0  0  0  0  0
   13.1557   -3.7479   22.8528 C   0  0  0  0  0  0  0  0  0  0  0  0
    9.1735   -5.8906   18.5203 C   0  0  0  0  0  0  0  0  0  0  0  0
   10.7178   -4.7985   21.8183 C   0  0  0  0  0  0  0  0  0  0  0  0
    7.3098   -7.4000   16.8612 S   0  0  0  0  0  0  0  0  0  0  0  0
    5.3024   -7.8806   17.2445 C   0  0  0  0  0  0  0  0  0  0  0  0
   11.1262   -3.6338   21.9274 C   0  0  0  0  0  0  0  0  0  0  0  0
    9.3630   -4.6138   18.4545 O   0  0  0  0  0  0  0  0  0  0  0  0
   10.9608   -2.8895   19.4532 C   0  0  0  0  0  0  0  0  0  0  0  0
    2.8443   -9.9072   17.4041 S   0  0  0  0  0  0  0  0  0  0  0  0
    1.3650   -8.2170   16.7815 C   0  0  0  0  0  0  0  0  0  0  0  0
   -0.7498  -13.9004   18.6111 C   0  0  0  0  0  0  0  0  0  0  0  0
   12.2607   -5.3778   22.6456 O   0  0  0  0  0  0  0  0  0  0  0  0
    7.8134   -8.4723   17.0555 S   0  0  0  0  0  0  0  0  0  0  0  0
    5.8298   -7.1086   16.6439 C   0  0  0  0  0  0  0  0  0  0  0  0
    0.3765  -11.2434   17.5287 O   0  0  0  0  0  0  0  0  0  0  0  0
    9.6224   -3.7410   16.7337 C   0  0  0  0  0  0  0  0  0  0  0  0
    1.7700  -10.5464   16.3438 C   0  0  0  0  0  0  0  0  0  0  0  0
   10.9639   -4.2588   20.7857 C   0  0  0  0  0  0  0  0  0  0  0  0
    1.5124  -11.7470   19.6476 He  0  0  0  0  0  0  0  0  0  0  0  0
    1.1031  -10.8890   17.3709 He  0  0  0  0  0  0  0  0  0  0  0  0
    0.0953   -7.9462   17.5669 He  0  0  0  0  0  0  0  0  0  0  0  0
   10.9951   -5.0787   18.3060 He  0  0  0  0  0  0  0  0  0  0  0  0
   -0.5021  -12.0908   16.1775 He  0  0  0  0  0  0  0  0  0  0  0  0
    4.6557   -8.7655   14.9070 He  0  0  0  0  0  0  0  0  0  0  0  0
    8.6303   -7.3900   17.2468 He  0  0  0  0  0  0  0  0  0  0  0  0
   12.5903   -4.0112   19.8154 He  0  0  0  0  0  0  0  0  0  0  0  0
    0.6441  -12.9381   18.9672 He  0  0  0  0  0  0  0  0  0  0  0  0
    9.8377   -6.7802   18.5709 He  0  0  0  0  0  0  0  0  0  0  0  0
    8.3996   -7.4335   16.1008 He  0  0  0  0  0  0  0  0  0  0  0  0
   10.8072   -3.0541   23.4756 He  0  0  0  0  0  0  0  0  0  0  0  0
    4.8791   -8.9932   15.1934 He  0  0  0  0  0  0  0  0  0  0  0  0
   -0.2021  -11.7521   17.2657 He  0  0  0  0  0  0  0  0  0  0  0  0
  1  2  4  0
  1  5  1  0
  1 10  1  0
  1 11  1  0
  1 14  2  0
  1 16  4  0
  1 20  4  0
  2  7  4  0
  2  9  3  0
  2 13  4  0
  2 14  1  0
  2 18  3  0
  3  5  3  0
  3  7  2  0
  3 10  4  0
  3 12  4  0
  3 15  1  0
  3 19  3  0
  3 20  4  0
  4 12  1  0
  4 17  4  0
  4 18  4  0
  5  8  2  0
  5  9  1  0
  5 10  1  0
  5 13  4  0
  6 10  2  0
  6 12  4  0
  6 13  2  0
  6 14  3  0
  6 15  1  0
  6 16  1  0
  6 18  1  0
  6 19  1  0
  6 20  2  0
  7  9  1  0
  7 10  2  0
  7 13  4  0
  7 19  2  0
  8 12  1  0
  8 13  3  0
  8 14  4  0
  8 15  1  0
  8 16  3  0
  8 20  2  0
  9 11  2  0
  9 12  4  0
  9 15  2  0
  9 16  2  0
 10 11  3  0
 10 17  2  0
 10 20  4  0
 11 12  3  0
 11 13  4  0
 11 15  3  0
 11 16  4  0
 11 17  3  0
 12 13  3  0
 13 16  2  0
 13 18  3  0
 13 19  3  0
 13 20  4  0
 14 16  1  0
 14 18  2  0
 16 17  3  0
 16 19  2  0
 17 19  1  0
 19 20  3  0
M  END
$$$$

 Created by Python create_sdf_string function

 34 15  0  0  0  0  0  0  0  0999 V2000
   11.0092   -3.7543   18.3555 C   0  0  0  0  0  0  0  0  0  0  0  0
    1.3660  -11.6982   19.1362 C   0  0  0  0  0  0  0  0  0  0  0  0
    8.3126   -6.6403   15.8192 C   0  0  0  0  0  0  0  0  0  0  0  0
    0.9925  -10.3924   17.5191 C   0  0  0  0  0  0  0  0  0  0  0  0
    0.6181   -8.7311   16.8197 C   0  0  0  0  0  0  0  0  0  0  0  0
   12.5688   -4.2641   22.5345 C   0  0  0  0  0  0  0  0  0  0  0  0
    9.2568   -5.9562   17.4169 C   0  0  0  0  0  0  0  0  0  0  0  0
   11.1303   -4.1198   21.5599 C   0  0  0  0  0  0  0  0  0  0  0  0
   10.6504   -4.8593   18.6190 C   0  0  0  0  0  0  0  0  0  0  0  0
    6.7176   -7.7910   16.7831 C   0  0  0  0  0  0  0  0  0  0  0  0
    5.1213   -8.2027   17.2627 C   0  0  0  0  0  0  0  0  0  0  0  0
   -0.4963  -11.6823   16.8417 C   0  0  0  0  0  0  0  0  0  0  0  0
   11.2273   -3.9337   21.9409 C   0  0  0  0  0  0  0  0  0  0  0  0
    9.8524   -5.0429   17.9459 C   0  0  0  0  0  0  0  0  0  0  0  0
   11.1390   -3.8228   19.5129 C   0  0  0  0  0  0  0  0  0  0  0  0
    4.1952   -8.5477   15.8449 C   0  0  0  0  0  0  0  0  0  0  0  0
    2.9526   -9.4508   17.2225 C   0  0  0  0  0  0  0  0  0  0  0  0
    1.9653   -8.5826   16.5334 C   0  0  0  0  0  0  0  0  0  0  0  0
    8.6964   -7.0564   17.5393 C   0  0  0  0  0  0  0  0  0  0  0  0
   12.0789   -4.4954   20.3318 C   0  0  0  0  0  0  0  0  0  0  0  0
    0.5519  -12.3252   18.8788 C   0  0  0  0  0  0  0  0  0  0  0  0
   -0.4239  -13.0848   18.3340 C   0  0  0  0  0  0  0  0  0  0  0  0
   12.4815   -4.6880   22.9528 O   0  0  0  0  0  0  0  0  0  0  0  0
    9.7788   -6.8146   18.4087 C   0  0  0  0  0  0  0  0  0  0  0  0
    8.1281   -7.4072   16.1754 C   0  0  0  0  0  0  0  0  0  0  0  0
   11.0915   -3.3418   23.6176 O   0  0  0  0  0  0  0  0  0  0  0  0
    7.4617   -8.2587   17.0387 C   0  0  0  0  0  0  0  0  0  0  0  0
    4.4923   -8.7499   16.1040 C   0  0  0  0  0  0  0  0  0  0  0  0
    5.7625   -7.7076   16.9364 C   0  0  0  0  0  0  0  0  0  0  0  0
   -0.5731  -12.3766   17.2973 C   0  0  0  0  0  0  0  0  0  0  0  0
    0.5028  -10.9316   17.4976 C   0  0  0  0  0  0  0  0  0  0  0  0
    9.7119   -4.3554   16.6298 C   0  0  0  0  0  0  0  0  0  0  0  0
    1.8716   -9.6415   16.8261 C   0  0  0  0  0  0  0  0  0  0  0  0
   11.0694   -4.0343   20.9249 C   0  0  0  0  0  0  0  0  0  0  0  0
  2 21  4  0
  3 25  1  0
  4 31  1  0
  6 23  4  0
  7 19  1  0
  7 32  4  0
  9 14  4  0
 10 27  1  0
 10 29  1  0
 11 29  4  0
 12 30  4  0
 12 31  4  0
 16 28  4  0
 21 22  4  0
 22 30  4  0
M  END
$$$$

 Created by Python create_sdf_string function

 34 52  0  0  0  0  0  0  0  0999 V2000
    1.0142   -9.7557   17.4574 O   0  0  0  0  0  0  0  0  0  0  0  0
   12.6075   -4.0463   23.5653 N   0  0  0  0  0  0  0  0  0  0  0  0
    9.5274   -5.1426   17.8377 O   0  0  0  0  0  0  0  0  0  0  0  0
   11.4619   -4.3601   21.8274 N   0  0  0  0  0  0  0  0  0  0  0  0
    6.2387   -9.1036   17.7871 C   0  0  0  0  0  0  0  0  0  0  0  0
    4.6838   -8.2542   17.4519 C   0  0  0  0  0  0  0  0  0  0  0  0
   12.6794   -4.0547   21.6042 F   0  0  0  0  0  0  0  0  0  0  0  0
   10.3539   -3.9975   20.2192 C   0  0  0  0  0  0  0  0  0  0  0  0
    3.7130   -8.5475   16.4525 C   0  0  0  0  0  0  0  0  0  0  0  0
    2.5609   -7.1597   17.4903 C   0  0  0  0  0  0  0  0  0  0  0  0
   12.7881   -4.6212   20.7674 I   0  0  0  0  0  0  0  0  0  0  0  0
    0.0724  -12.3404   17.5625 C   0  0  0  0  0  0  0  0  0  0  0  0
   12.9078   -5.4890   23.4020 C   0  0  0  0  0  0  0  0  0  0  0  0
   10.6914   -6.8007   17.7762 C   0  0  0  0  0  0  0  0  0  0  0  0
   11.6014   -3.8779   24.3074 O   0  0  0  0  0  0  0  0  0  0  0  0
    5.7673   -8.9079   15.5174 O   0  0  0  0  0  0  0  0  0  0  0  0
    6.6383   -7.5869   16.2224 C   0  0  0  0  0  0  0  0  0  0  0  0
    1.1320   -9.9620   18.8104 C   0  0  0  0  0  0  0  0  0  0  0  0
   10.2159   -4.7828   21.5013 C   0  0  0  0  0  0  0  0  0  0  0  0
   11.1369   -4.5193   18.0667 He  0  0  0  0  0  0  0  0  0  0  0  0
    2.8188  -13.0791   20.2373 He  0  0  0  0  0  0  0  0  0  0  0  0
    8.1959   -7.0751   16.4090 He  0  0  0  0  0  0  0  0  0  0  0  0
   -1.5475   -8.9766   17.3487 He  0  0  0  0  0  0  0  0  0  0  0  0
   11.4434   -5.0164   18.6714 He  0  0  0  0  0  0  0  0  0  0  0  0
   -0.8413  -11.6928   17.6766 He  0  0  0  0  0  0  0  0  0  0  0  0
    8.8507   -6.3154   17.7163 He  0  0  0  0  0  0  0  0  0  0  0  0
    2.7721   -9.7209   16.4374 He  0  0  0  0  0  0  0  0  0  0  0  0
    8.7543   -6.7350   18.8554 He  0  0  0  0  0  0  0  0  0  0  0  0
    0.3615  -11.9919   18.0979 He  0  0  0  0  0  0  0  0  0  0  0  0
    8.4674   -6.8829   15.6588 He  0  0  0  0  0  0  0  0  0  0  0  0
    6.6786   -8.0009   16.7327 He  0  0  0  0  0  0  0  0  0  0  0  0
    0.3452  -12.1881   16.7578 He  0  0  0  0  0  0  0  0  0  0  0  0
   10.4543   -4.5629   17.6978 He  0  0  0  0  0  0  0  0  0  0  0  0
    1.7082   -8.5204   16.5605 He  0  0  0  0  0  0  0  0  0  0  0  0
  1  2  1  0
  1  9  1  0
  1 11  3  0
  1 16  1  0
  1 18  3  0
  2  4  3  0
  2  5  2  0
  2 11  3  0
  2 19  4  0
  3  5  2  0
  3  6  4  0
  3  9  1  0
  3 10  1  0
  3 14  3  0
  3 16  1  0
  3 18  2  0
  4  6  4  0
  4  8  4  0
  4 14  3  0
  4 18  3  0
  4 19  3  0
  5 11  3  0
  5 17  1  0
  5 18  3  0
  6 11  3  0
  6 12  4  0
  6 13  4  0
  7  8  2  0
  7 10  4  0
  7 17  1  0
  7 19  2  0
  8  9  1  0
  8 16  4  0
  8 18  4  0
  9 15  4  0
  9 17  1  0
  9 18  3  0
  9 19  2  0
 10 11  3  0
 11 13  4  0
 11 18  3  0
 11 19  4  0
 12 13  1  0
 12 16  2  0
 13 14  2  0
 13 19  2  0
 14 15  1  0
 14 16  1  0
 15 17  4  0
 16 17  4  0
 16 19  1  0
 17 19  3  0
M  END
$$$$

 Created by Python create_sdf_string function

 34 16  0  0  0  0  0  0  0  0999 V2000
   11.0059   -4.7443   18.2794 C   0  0  0  0  0  0  0  0  0  0  0  0
    1.9209  -12.0550   19.4380 C   0  0  0  0  0  0  0  0  0  0  0  0
    8.1142   -7.1298   16.4884 C   0  0  0  0  0  0  0  0  0  0  0  0
    0.9763   -9.9422   17.3931 C   0  0  0  0  0  0  0  0  0  0  0  0
   -0.6171   -9.6920   17.1947 C   0  0  0  0  0  0  0  0  0  0  0  0
   12.1345   -4.2233   23.4931 C   0  0  0  0  0  0  0  0  0  0  0  0
    9.7002   -5.1040   17.5280 C   0  0  0  0  0  0  0  0  0  0  0  0
   11.1120   -4.0311   21.5300 C   0  0  0  0  0  0  0  0  0  0  0  0
   11.0784   -4.6753   19.1464 C   0  0  0  0  0  0  0  0  0  0  0  0
    6.0418   -8.5226   17.6849 C   0  0  0  0  0  0  0  0  0  0  0  0
    4.4630   -8.5959   17.1117 C   0  0  0  0  0  0  0  0  0  0  0  0
   -0.6588  -11.1783   17.4561 C   0  0  0  0  0  0  0  0  0  0  0  0
   12.2871   -4.4894   22.2602 C   0  0  0  0  0  0  0  0  0  0  0  0
    9.0423   -6.3247   17.3804 C   0  0  0  0  0  0  0  0  0  0  0  0
   10.9294   -4.2237   20.0573 C   0  0  0  0  0  0  0  0  0  0  0  0
    3.7301   -8.5509   16.5497 C   0  0  0  0  0  0  0  0  0  0  0  0
    2.6353   -7.8440   16.5729 C   0  0  0  0  0  0  0  0  0  0  0  0
    2.9181   -9.5161   17.2304 C   0  0  0  0  0  0  0  0  0  0  0  0
    9.0810   -6.8373   18.1139 C   0  0  0  0  0  0  0  0  0  0  0  0
   12.5316   -5.0419   21.1373 C   0  0  0  0  0  0  0  0  0  0  0  0
    0.7065  -11.8890   18.4722 C   0  0  0  0  0  0  0  0  0  0  0  0
    0.4344  -12.2934   18.3637 C   0  0  0  0  0  0  0  0  0  0  0  0
   13.0720   -5.1007   22.7279 C   0  0  0  0  0  0  0  0  0  0  0  0
   10.1712   -6.5733   18.2009 C   0  0  0  0  0  0  0  0  0  0  0  0
    8.0910   -7.2771   15.8100 C   0  0  0  0  0  0  0  0  0  0  0  0
   11.6276   -3.9953   24.2247 O   0  0  0  0  0  0  0  0  0  0  0  0
    6.7111   -8.0366   16.8740 C   0  0  0  0  0  0  0  0  0  0  0  0
    5.7723   -8.5205   15.7179 C   0  0  0  0  0  0  0  0  0  0  0  0
    6.4072   -8.0611   16.3025 C   0  0  0  0  0  0  0  0  0  0  0  0
   -0.1842  -11.8757   17.6355 C   0  0  0  0  0  0  0  0  0  0  0  0
    1.4873  -10.3591   17.8218 C   0  0  0  0  0  0  0  0  0  0  0  0
   10.1090   -4.4409   17.3367 C   0  0  0  0  0  0  0  0  0  0  0  0
    1.5933   -8.7386   16.6677 C   0  0  0  0  0  0  0  0  0  0  0  0
   11.3209   -4.4778   21.6756 C   0  0  0  0  0  0  0  0  0  0  0  0
  1  9  4  0
  3 25  1  0
  4 31  4  0
  5 12  4  0
  6 26  2  0
  7 32  4  0
  8 15  4  0
  8 34  4  0
  9 15  1  0
 12 30  4  0
 16 17  4  0
 18 31  4  0
 20 23  4  0
 21 22  4  0
 22 30  4  0
 28 29  4  0
M  END
$$$$

 Created by Python create_sdf_string function

 34 96  0  0  0  0  0  0  0  0999 V2000
    3.5901  -12.6168   21.1711 S   0  0  0  0  0  0  0  0  0  0  0  0
    1.4622   -8.4030   17.2648 Cl  0  0  0  0  0  0  0  0  0  0  0  0
    0.2108   -9.3663   16.7718 C   0  0  0  0  0  0  0  0  0  0  0  0
   13.2948   -4.0094   24.6442 C   0  0  0  0  0  0  0  0  0  0  0  0
   10.1042   -6.2501   17.9691 F   0  0  0  0  0  0  0  0  0  0  0  0
   10.1749   -3.6649   21.7570 C   0  0  0  0  0  0  0  0  0  0  0  0
    6.5276   -7.6035   16.6623 C   0  0  0  0  0  0  0  0  0  0  0  0
    3.6063   -8.2829   16.3593 C   0  0  0  0  0  0  0  0  0  0  0  0
    0.8605  -10.6632   17.8329 C   0  0  0  0  0  0  0  0  0  0  0  0
    8.8209   -6.9890   16.7356 O   0  0  0  0  0  0  0  0  0  0  0  0
    3.0182   -6.8452   16.9886 C   0  0  0  0  0  0  0  0  0  0  0  0
    1.1571   -8.0274   16.0708 Cl  0  0  0  0  0  0  0  0  0  0  0  0
    8.0394   -7.4815   18.3745 S   0  0  0  0  0  0  0  0  0  0  0  0
   12.2660   -5.4281   20.5264 C   0  0  0  0  0  0  0  0  0  0  0  0
   -0.1411  -13.0565   17.5107 C   0  0  0  0  0  0  0  0  0  0  0  0
    0.6725  -12.0625   18.8873 Cl  0  0  0  0  0  0  0  0  0  0  0  0
   11.0746   -4.5074   23.5763 O   0  0  0  0  0  0  0  0  0  0  0  0
    6.5124   -7.7319   16.9250 C   0  0  0  0  0  0  0  0  0  0  0  0
    5.6460   -8.5020   14.4326 C   0  0  0  0  0  0  0  0  0  0  0  0
    6.2519   -8.5794   16.7262 P   0  0  0  0  0  0  0  0  0  0  0  0
    0.7442  -11.8572   16.9203 F   0  0  0  0  0  0  0  0  0  0  0  0
    2.2016  -10.6994   17.3660 C   0  0  0  0  0  0  0  0  0  0  0  0
   11.0942   -4.3119   16.7469 C   0  0  0  0  0  0  0  0  0  0  0  0
    1.3373   -7.4634   16.3747 N   0  0  0  0  0  0  0  0  0  0  0  0
   11.8240   -4.3290   21.4562 C   0  0  0  0  0  0  0  0  0  0  0  0
   12.7579   -4.7648   18.8063 He  0  0  0  0  0  0  0  0  0  0  0  0
    7.0416   -6.6531   16.7329 He  0  0  0  0  0  0  0  0  0  0  0  0
   10.7167   -4.4044   19.5335 He  0  0  0  0  0  0  0  0  0  0  0  0
   13.1176   -6.1358   21.5364 He  0  0  0  0  0  0  0  0  0  0  0  0
   12.4089   -3.9482   19.4119 He  0  0  0  0  0  0  0  0  0  0  0  0
    3.7865   -9.7455   17.2639 He  0  0  0  0  0  0  0  0  0  0  0  0
   13.5005   -6.3706   23.4517 He  0  0  0  0  0  0  0  0  0  0  0  0
   10.8522   -6.5153   18.5627 He  0  0  0  0  0  0  0  0  0  0  0  0
    8.4656   -5.8632   16.3027 He  0  0  0  0  0  0  0  0  0  0  0  0
  1  3  4  0
  1  5  2  0
  1 13  3  0
  1 18  2  0
  2  5  1  0
  2 14  4  0
  2 17  4  0
  2 21  4  0
  2 22  1  0
  2 25  2  0
  3  4  3  0
  3  8  3  0
  3  9  2  0
  3 10  1  0
  3 18  3  0
  3 20  1  0
  4  5  4  0
  4 10  1  0
  4 11  3  0
  4 16  4  0
  4 17  2  0
  4 20  4  0
  5  7  3  0
  5  9  4  0
  5 11  4  0
  5 15  4  0
  5 17  3  0
  5 19  3  0
  5 21  4  0
  5 25  1  0
  6 14  1  0
  6 19  1  0
  6 23  4  0
  7 14  2  0
  7 15  2  0
  7 19  4  0
  7 23  2  0
  8 10  2  0
  8 17  3  0
  8 18  4  0
  8 20  1  0
  8 21  3  0
  8 25  2  0
  9 12  4  0
  9 14  1  0
  9 19  4  0
 10 11  2  0
 10 12  2  0
 10 14  4  0
 10 17  1  0
 10 19  3  0
 10 20  2  0
 10 22  4  0
 10 25  1  0
 11 12  4  0
 11 13  2  0
 11 14  4  0
 11 15  3  0
 11 16  4  0
 11 17  4  0
 11 22  1  0
 11 24  1  0
 12 13  2  0
 12 16  2  0
 13 15  1  0
 13 16  1  0
 13 17  4  0
 13 18  1  0
 13 20  1  0
 13 22  2  0
 14 17  4  0
 14 19  2  0
 14 21  1  0
 14 22  1  0
 14 24  1  0
 15 16  2  0
 15 17  2  0
 15 18  4  0
 15 21  2  0
 15 22  4  0
 16 21  4  0
 16 22  2  0
 17 20  2  0
 17 21  2  0
 17 23  1  0
 17 25  4  0
 18 19  1  0
 18 21  3  0
 19 22  3  0
 19 25  2  0
 20 24  4  0
 20 25  2  0
 21 23  2  0
 21 25  3  0
 23 24  1  0
 23 25  2  0
M  END
$$$$

 Created by Python create_sdf_string function

 34 19  0  0  0  0  0  0  0  0999 V2000
   12.0689   -4.8241   18.6490 C   0  0  0  0  0  0  0  0  0  0  0  0
    2.1317  -12.0508   19.5784 C   0  0  0  0  0  0  0  0  0  0  0  0
    7.3462   -6.8617   16.5382 C   0  0  0  0  0  0  0  0  0  0  0  0
    2.0277   -9.2167   16.9117 C   0  0  0  0  0  0  0  0  0  0  0  0
    0.7317   -9.7709   16.9559 C   0  0  0  0  0  0  0  0  0  0  0  0
   12.6926   -4.6880   24.1227 C   0  0  0  0  0  0  0  0  0  0  0  0
    9.7839   -6.0577   17.8202 C   0  0  0  0  0  0  0  0  0  0  0  0
   11.1471   -4.0979   21.6466 C   0  0  0  0  0  0  0  0  0  0  0  0
   10.8819   -4.4758   19.6849 C   0  0  0  0  0  0  0  0  0  0  0  0
    6.4528   -7.3027   16.0890 C   0  0  0  0  0  0  0  0  0  0  0  0
    4.1123   -8.2990   16.4546 C   0  0  0  0  0  0  0  0  0  0  0  0
    0.9845  -10.5584   17.6001 C   0  0  0  0  0  0  0  0  0  0  0  0
   13.1282   -5.3418   21.7414 C   0  0  0  0  0  0  0  0  0  0  0  0
    9.1257   -6.9082   17.3274 C   0  0  0  0  0  0  0  0  0  0  0  0
   11.7470   -4.6152   19.7835 C   0  0  0  0  0  0  0  0  0  0  0  0
    3.0338   -7.8821   16.2258 C   0  0  0  0  0  0  0  0  0  0  0  0
    1.4233   -7.8707   16.2162 C   0  0  0  0  0  0  0  0  0  0  0  0
    3.6299   -9.8596   17.6027 N   0  0  0  0  0  0  0  0  0  0  0  0
    8.0681   -7.5474   17.7678 C   0  0  0  0  0  0  0  0  0  0  0  0
   12.5616   -5.2689   20.6160 C   0  0  0  0  0  0  0  0  0  0  0  0
    0.0412  -12.5129   18.1405 C   0  0  0  0  0  0  0  0  0  0  0  0
    1.1139  -12.2096   18.9378 C   0  0  0  0  0  0  0  0  0  0  0  0
   13.4944   -5.6079   23.1566 O   0  0  0  0  0  0  0  0  0  0  0  0
   10.3405   -6.1601   18.5230 C   0  0  0  0  0  0  0  0  0  0  0  0
    8.7470   -5.5988   16.5066 C   0  0  0  0  0  0  0  0  0  0  0  0
   12.0728   -4.5730   23.6109 O   0  0  0  0  0  0  0  0  0  0  0  0
    6.7545   -7.5620   17.1070 C   0  0  0  0  0  0  0  0  0  0  0  0
    5.5263   -8.1099   15.7067 C   0  0  0  0  0  0  0  0  0  0  0  0
    5.7784   -8.4126   16.9980 C   0  0  0  0  0  0  0  0  0  0  0  0
    0.3139  -11.5247   17.7569 C   0  0  0  0  0  0  0  0  0  0  0  0
    2.1204  -10.8006   18.1726 C   0  0  0  0  0  0  0  0  0  0  0  0
   10.8059   -4.3791   17.1597 C   0  0  0  0  0  0  0  0  0  0  0  0
    1.7852   -7.5852   16.0453 C   0  0  0  0  0  0  0  0  0  0  0  0
   11.6028   -4.4039   21.7150 C   0  0  0  0  0  0  0  0  0  0  0  0
  1 15  1  0
  2 22  4  0
  3 10  4  0
  3 25  1  0
  3 27  4  0
  5 12  4  0
  6 26  1  0
  7 14  1  0
  7 24  1  0
  8 34  4  0
  9 15  4  0
 10 28  4  0
 11 16  4  0
 12 31  4  0
 13 20  4  0
 13 23  4  0
 16 33  1  0
 17 33  4  0
 21 30  4  0
M  END
$$$$

 Created by Python create_sdf_string function

 34 74  0  0  0  0  0  0  0  0999 V2000
   13.2696   -5.5445   19.2730 C   0  0  0  0  0  0  0  0  0  0  0  0
    0.9518  -13.1812   20.3972 Cl  0  0  0  0  0  0  0  0  0  0  0  0
    7.7528   -7.1146   15.4449 C   0  0  0  0  0  0  0  0  0  0  0  0
    0.9633   -8.6134   16.3119 N   0  0  0  0  0  0  0  0  0  0  0  0
   12.8557   -4.3586   24.9306 P   0  0  0  0  0  0  0  0  0  0  0  0
    9.9472   -5.6073   18.0886 C   0  0  0  0  0  0  0  0  0  0  0  0
   11.2180   -3.8503   20.1742 F   0  0  0  0  0  0  0  0  0  0  0  0
    8.9970   -3.6475   18.5231 Br  0  0  0  0  0  0  0  0  0  0  0  0
   11.5550   -5.3679   19.9706 N   0  0  0  0  0  0  0  0  0  0  0  0
    3.4668   -7.3484   17.0846 I   0  0  0  0  0  0  0  0  0  0  0  0
    2.0065   -6.1217   17.2379 C   0  0  0  0  0  0  0  0  0  0  0  0
    2.2935  -10.3877   19.0676 Se  0  0  0  0  0  0  0  0  0  0  0  0
    7.6868   -8.4389   17.4009 F   0  0  0  0  0  0  0  0  0  0  0  0
   12.3653   -6.3234   20.7380 C   0  0  0  0  0  0  0  0  0  0  0  0
    1.9726  -12.3679   19.2418 Cl  0  0  0  0  0  0  0  0  0  0  0  0
   14.0192   -6.0001   23.3187 O   0  0  0  0  0  0  0  0  0  0  0  0
   10.4660   -5.4833   18.1358 Cl  0  0  0  0  0  0  0  0  0  0  0  0
   11.0258   -4.1500   23.8501 O   0  0  0  0  0  0  0  0  0  0  0  0
    7.9524   -7.8692   17.4520 S   0  0  0  0  0  0  0  0  0  0  0  0
    4.8092   -8.9787   15.7008 C   0  0  0  0  0  0  0  0  0  0  0  0
    1.8145  -10.9798   17.8006 F   0  0  0  0  0  0  0  0  0  0  0  0
    2.3204   -7.5040   16.4746 C   0  0  0  0  0  0  0  0  0  0  0  0
    1.9949   -8.7831   17.7699 He  0  0  0  0  0  0  0  0  0  0  0  0
    5.3021   -6.0917   16.0484 He  0  0  0  0  0  0  0  0  0  0  0  0
    3.3991   -8.1565   17.1732 He  0  0  0  0  0  0  0  0  0  0  0  0
    1.4149  -10.7616   18.4353 He  0  0  0  0  0  0  0  0  0  0  0  0
   13.1754   -4.2462   22.1810 He  0  0  0  0  0  0  0  0  0  0  0  0
    8.7934   -7.2976   16.8513 He  0  0  0  0  0  0  0  0  0  0  0  0
    1.1950  -12.6584   18.5995 He  0  0  0  0  0  0  0  0  0  0  0  0
    8.7922   -5.8251   16.3128 He  0  0  0  0  0  0  0  0  0  0  0  0
    6.2166   -7.3941   16.7884 He  0  0  0  0  0  0  0  0  0  0  0  0
    0.4189  -10.3035   17.5488 He  0  0  0  0  0  0  0  0  0  0  0  0
    9.3562   -5.2301   17.8342 He  0  0  0  0  0  0  0  0  0  0  0  0
    9.8857   -4.9176   21.1351 He  0  0  0  0  0  0  0  0  0  0  0  0
  1  3  2  0
  1  9  4  0
  1 11  4  0
  1 14  1  0
  1 17  1  0
  1 19  2  0
  1 20  4  0
  2  5  1  0
  2  7  4  0
  2  9  4  0
  2 11  3  0
  2 15  4  0
  2 20  1  0
  2 21  3  0
  3  7  2  0
  3  9  3  0
  3 13  3  0
  3 15  2  0
  3 16  4  0
  3 19  4  0
  3 20  1  0
  3 22  1  0
  4  7  4  0
  4 21  4  0
  5 16  2  0
  5 17  4  0
  5 22  4  0
  6  7  4  0
  6 12  3  0
  6 17  2  0
  6 18  2  0
  6 20  4  0
  7 12  2  0
  7 13  4  0
  7 15  1  0
  7 18  3  0
  8  9  4  0
  8 10  1  0
  8 21  4  0
  8 22  1  0
  9 14  1  0
  9 15  2  0
  9 19  1  0
 10 12  4  0
 10 16  1  0
 10 17  3  0
 10 18  4  0
 10 22  4  0
 11 19  1  0
 11 21  3  0
 11 22  3  0
 12 14  2  0
 12 17  3  0
 13 14  4  0
 13 15  4  0
 13 18  4  0
 13 19  3  0
 13 20  1  0
 14 15  4  0
 14 18  2  0
 14 19  3  0
 14 20  2  0
 14 22  4  0
 15 16  1  0
 15 19  1  0
 16 19  3  0
 16 20  4  0
 16 21  3  0
 17 18  2  0
 17 19  1  0
 18 19  2  0
 18 21  3  0
 19 20  3  0
 21 22  2  0
M  END
$$$$

 Created by Python create_sdf_string function

 34 17  0  0  0  0  0  0  0  0999 V2000
   12.5458   -5.7001   19.5551 C   0  0  0  0  0  0  0  0  0  0  0  0
    1.4081  -12.5307   19.7634 C   0  0  0  0  0  0  0  0  0  0  0  0
    7.4744   -7.0323   15.7479 C   0  0  0  0  0  0  0  0  0  0  0  0
    2.5770   -9.2150   17.1543 C   0  0  0  0  0  0  0  0  0  0  0  0
    1.0181   -8.6294   16.4964 N   0  0  0  0  0  0  0  0  0  0  0  0
   12.6524   -4.7717   23.8097 C   0  0  0  0  0  0  0  0  0  0  0  0
   10.0835   -5.5678   17.8840 C   0  0  0  0  0  0  0  0  0  0  0  0
   10.9638   -4.4242   20.2224 C   0  0  0  0  0  0  0  0  0  0  0  0
    9.5511   -4.4871   17.8923 C   0  0  0  0  0  0  0  0  0  0  0  0
    6.0112   -6.8485   15.5466 C   0  0  0  0  0  0  0  0  0  0  0  0
    3.7640   -8.6445   16.8860 C   0  0  0  0  0  0  0  0  0  0  0  0
    1.3997  -11.0134   18.2618 C   0  0  0  0  0  0  0  0  0  0  0  0
   12.6620   -4.9470   21.9714 C   0  0  0  0  0  0  0  0  0  0  0  0
    8.6312   -6.5861   16.7911 C   0  0  0  0  0  0  0  0  0  0  0  0
   12.1550   -5.2414   20.0995 C   0  0  0  0  0  0  0  0  0  0  0  0
    3.4646   -7.9602   16.6064 C   0  0  0  0  0  0  0  0  0  0  0  0
    1.8780   -7.1065   16.1591 C   0  0  0  0  0  0  0  0  0  0  0  0
    2.6634  -11.1117   18.6891 C   0  0  0  0  0  0  0  0  0  0  0  0
    7.3830   -8.3421   17.2592 C   0  0  0  0  0  0  0  0  0  0  0  0
   12.6313   -5.1464   21.2553 C   0  0  0  0  0  0  0  0  0  0  0  0
    0.5284  -12.3142   18.7445 C   0  0  0  0  0  0  0  0  0  0  0  0
    2.1778  -12.0023   19.6721 C   0  0  0  0  0  0  0  0  0  0  0  0
   13.5986   -5.2984   23.3391 O   0  0  0  0  0  0  0  0  0  0  0  0
   10.7919   -5.8005   18.0623 C   0  0  0  0  0  0  0  0  0  0  0  0
    8.7571   -5.8387   16.5321 C   0  0  0  0  0  0  0  0  0  0  0  0
   11.6806   -4.3307   23.6740 O   0  0  0  0  0  0  0  0  0  0  0  0
    7.7682   -7.9385   17.3173 C   0  0  0  0  0  0  0  0  0  0  0  0
    5.3222   -8.3568   16.3947 C   0  0  0  0  0  0  0  0  0  0  0  0
    5.9999   -7.8139   16.7015 C   0  0  0  0  0  0  0  0  0  0  0  0
    0.5440  -10.9359   17.6639 C   0  0  0  0  0  0  0  0  0  0  0  0
    1.6587  -10.2323   17.6993 C   0  0  0  0  0  0  0  0  0  0  0  0
    9.9838   -5.0919   18.1403 C   0  0  0  0  0  0  0  0  0  0  0  0
    2.2178   -7.4223   16.2597 C   0  0  0  0  0  0  0  0  0  0  0  0
   10.8978   -4.3527   21.1504 C   0  0  0  0  0  0  0  0  0  0  0  0
  1 15  4  0
  2 21  4  0
  2 22  4  0
  3 10  4  0
  4 11  4  0
  6 23  2  0
  6 26  1  0
  8 34  4  0
 12 31  4  0
 13 20  4  0
 14 25  4  0
 16 33  4  0
 17 33  4  0
 18 22  4  0
 19 27  4  0
 21 30  4  0
 28 29  1  0
M  END
$$$$

 Created by Python create_sdf_string function

 34 47  0  0  0  0  0  0  0  0999 V2000
    1.9331   -8.9177   16.7862 N   0  0  0  0  0  0  0  0  0  0  0  0
   12.7062   -4.5735   24.7090 C   0  0  0  0  0  0  0  0  0  0  0  0
    8.7655   -5.8866   16.8626 C   0  0  0  0  0  0  0  0  0  0  0  0
   11.2353   -4.4776   19.8502 S   0  0  0  0  0  0  0  0  0  0  0  0
   11.1983   -5.0441   17.8307 C   0  0  0  0  0  0  0  0  0  0  0  0
    1.9477   -9.9613   17.5617 C   0  0  0  0  0  0  0  0  0  0  0  0
   13.1411   -5.7532   19.5769 C   0  0  0  0  0  0  0  0  0  0  0  0
    3.8350   -7.2134   16.5235 Cl  0  0  0  0  0  0  0  0  0  0  0  0
    3.3064   -7.1765   15.6692 C   0  0  0  0  0  0  0  0  0  0  0  0
    3.5034  -11.9940   18.4242 C   0  0  0  0  0  0  0  0  0  0  0  0
    0.8866  -12.5511   19.3545 Cl  0  0  0  0  0  0  0  0  0  0  0  0
   10.5579   -4.8891   18.1304 C   0  0  0  0  0  0  0  0  0  0  0  0
    8.6873   -6.5902   16.2252 C   0  0  0  0  0  0  0  0  0  0  0  0
   10.5902   -3.5830   24.4388 C   0  0  0  0  0  0  0  0  0  0  0  0
    7.9220   -9.6218   16.5854 O   0  0  0  0  0  0  0  0  0  0  0  0
    5.0066   -8.8080   16.1947 N   0  0  0  0  0  0  0  0  0  0  0  0
   -0.2940  -10.4556   16.7664 C   0  0  0  0  0  0  0  0  0  0  0  0
   10.6296   -3.4900   20.8551 C   0  0  0  0  0  0  0  0  0  0  0  0
   12.8499   -6.3167   19.6148 He  0  0  0  0  0  0  0  0  0  0  0  0
    0.9599  -13.2734   20.4421 He  0  0  0  0  0  0  0  0  0  0  0  0
    7.8908   -7.0756   16.0793 He  0  0  0  0  0  0  0  0  0  0  0  0
    2.3586   -9.7385   16.7392 He  0  0  0  0  0  0  0  0  0  0  0  0
    5.1061   -7.4164   15.2835 He  0  0  0  0  0  0  0  0  0  0  0  0
    4.6741   -7.4545   15.9129 He  0  0  0  0  0  0  0  0  0  0  0  0
   11.9524   -4.8355   21.5639 He  0  0  0  0  0  0  0  0  0  0  0  0
    8.9033   -5.8998   17.7592 He  0  0  0  0  0  0  0  0  0  0  0  0
    7.7545   -7.7701   19.2951 He  0  0  0  0  0  0  0  0  0  0  0  0
   11.6067   -4.9384   22.0261 He  0  0  0  0  0  0  0  0  0  0  0  0
    0.8097  -12.7807   18.7946 He  0  0  0  0  0  0  0  0  0  0  0  0
   13.1639   -3.5469   24.7730 He  0  0  0  0  0  0  0  0  0  0  0  0
    6.7054   -8.7208   15.8705 He  0  0  0  0  0  0  0  0  0  0  0  0
    2.2621  -10.7296   17.7210 He  0  0  0  0  0  0  0  0  0  0  0  0
    9.8723   -5.3338   19.0158 He  0  0  0  0  0  0  0  0  0  0  0  0
    1.3075   -8.1918   17.2035 He  0  0  0  0  0  0  0  0  0  0  0  0
  1  9  1  0
  1 14  1  0
  1 17  1  0
  1 18  2  0
  2 13  1  0
  2 14  1  0
  2 17  2  0
  3  9  2  0
  3 11  3  0
  3 12  1  0
  3 15  1  0
  3 16  4  0
  4  5  2  0
  4 10  1  0
  4 11  3  0
  4 14  1  0
  4 15  3  0
  4 16  4  0
  4 18  3  0
  5  6  3  0
  5  9  4  0
  5 10  3  0
  5 11  2  0
  5 13  1  0
  5 14  4  0
  6  8  4  0
  6 16  4  0
  7 11  4  0
  7 14  2  0
  7 16  3  0
  7 18  3  0
  8 13  3  0
  8 15  2  0
  8 18  1  0
  9 14  3  0
 10 11  4  0
 10 14  3  0
 10 15  1  0
 10 17  4  0
 12 16  3  0
 12 17  4  0
 12 18  3  0
 13 14  3  0
 13 15  3  0
 15 17  2  0
 15 18  4  0
 16 17  4  0
M  END
$$$$

 Created by Python create_sdf_string function

 34 17  0  0  0  0  0  0  0  0999 V2000
   12.6524   -5.5183   19.9575 C   0  0  0  0  0  0  0  0  0  0  0  0
    1.2673  -12.9437   19.9991 C   0  0  0  0  0  0  0  0  0  0  0  0
    7.6944   -7.0468   15.9794 C   0  0  0  0  0  0  0  0  0  0  0  0
    3.1533   -9.5452   17.1301 C   0  0  0  0  0  0  0  0  0  0  0  0
    1.8058   -8.7753   16.5607 C   0  0  0  0  0  0  0  0  0  0  0  0
   12.0451   -4.1601   23.9002 C   0  0  0  0  0  0  0  0  0  0  0  0
    8.5877   -6.2996   16.9715 C   0  0  0  0  0  0  0  0  0  0  0  0
   11.4199   -4.8081   19.9551 C   0  0  0  0  0  0  0  0  0  0  0  0
   11.0068   -4.9065   17.9628 C   0  0  0  0  0  0  0  0  0  0  0  0
    5.3106   -7.4210   15.6702 C   0  0  0  0  0  0  0  0  0  0  0  0
    3.9080   -7.4895   15.8594 C   0  0  0  0  0  0  0  0  0  0  0  0
    2.2082  -10.2500   17.6360 C   0  0  0  0  0  0  0  0  0  0  0  0
   12.0218   -4.6685   21.8010 C   0  0  0  0  0  0  0  0  0  0  0  0
    9.0492   -6.1191   17.7221 C   0  0  0  0  0  0  0  0  0  0  0  0
   12.6984   -5.5841   19.8088 C   0  0  0  0  0  0  0  0  0  0  0  0
    4.3417   -8.1705   16.3848 C   0  0  0  0  0  0  0  0  0  0  0  0
    2.7640   -7.5151   15.9786 C   0  0  0  0  0  0  0  0  0  0  0  0
    2.6577  -11.5861   18.8871 C   0  0  0  0  0  0  0  0  0  0  0  0
    8.0457   -7.6138   18.0016 C   0  0  0  0  0  0  0  0  0  0  0  0
   11.9498   -4.6001   22.0785 C   0  0  0  0  0  0  0  0  0  0  0  0
    1.0627  -12.3483   19.0509 C   0  0  0  0  0  0  0  0  0  0  0  0
    0.8312  -12.1748   18.8157 C   0  0  0  0  0  0  0  0  0  0  0  0
   12.8852   -4.0919   24.4074 O   0  0  0  0  0  0  0  0  0  0  0  0
   10.2255   -5.0238   18.3847 C   0  0  0  0  0  0  0  0  0  0  0  0
    8.4611   -6.5438   16.2638 C   0  0  0  0  0  0  0  0  0  0  0  0
   10.8169   -3.8434   24.1664 C   0  0  0  0  0  0  0  0  0  0  0  0
    7.8384   -8.6259   16.6929 C   0  0  0  0  0  0  0  0  0  0  0  0
    4.9967   -9.0093   16.5944 N   0  0  0  0  0  0  0  0  0  0  0  0
    6.4705   -8.3074   16.1339 C   0  0  0  0  0  0  0  0  0  0  0  0
    0.4605  -10.6223   17.6727 C   0  0  0  0  0  0  0  0  0  0  0  0
    2.0707  -10.6145   17.8985 C   0  0  0  0  0  0  0  0  0  0  0  0
    9.9476   -5.0720   18.8629 C   0  0  0  0  0  0  0  0  0  0  0  0
    1.1855   -8.6339   16.4677 C   0  0  0  0  0  0  0  0  0  0  0  0
   10.6792   -4.1427   20.9704 C   0  0  0  0  0  0  0  0  0  0  0  0
  1  8  4  0
  1 15  4  0
  2 21  1  0
  3 25  1  0
  5 33  4  0
  6 20  1  0
  6 23  2  0
  6 26  1  0
 11 17  4  0
 12 31  4  0
 13 20  4  0
 18 21  4  0
 18 31  4  0
 21 22  4  0
 24 32  4  0
 28 29  1  0
 30 31  4  0
M  END
$$$$

 Created by Python create_sdf_string function

 34 62  0  0  0  0  0  0  0  0999 V2000
   12.4909   -6.6555   19.1588 C   0  0  0  0  0  0  0  0  0  0  0  0
    1.0492  -13.0714   21.0595 C   0  0  0  0  0  0  0  0  0  0  0  0
    7.1691   -5.8938   17.1742 Cl  0  0  0  0  0  0  0  0  0  0  0  0
    1.8002   -8.4786   16.8873 C   0  0  0  0  0  0  0  0  0  0  0  0
    7.9883   -6.0896   16.9145 C   0  0  0  0  0  0  0  0  0  0  0  0
   12.3687   -3.8478   21.2404 F   0  0  0  0  0  0  0  0  0  0  0  0
   12.4837   -5.9262   18.3479 C   0  0  0  0  0  0  0  0  0  0  0  0
    5.3513   -6.8999   15.7890 C   0  0  0  0  0  0  0  0  0  0  0  0
   12.1204   -5.0218   19.4205 I   0  0  0  0  0  0  0  0  0  0  0  0
    4.7504   -8.6707   15.9663 N   0  0  0  0  0  0  0  0  0  0  0  0
    2.1220   -7.9976   16.5972 N   0  0  0  0  0  0  0  0  0  0  0  0
    8.8065   -8.8437   17.1310 C   0  0  0  0  0  0  0  0  0  0  0  0
   11.6453   -5.3086   21.0868 C   0  0  0  0  0  0  0  0  0  0  0  0
    2.0054  -12.3660   21.3463 C   0  0  0  0  0  0  0  0  0  0  0  0
   13.1747   -5.1415   24.4355 N   0  0  0  0  0  0  0  0  0  0  0  0
    9.3455   -5.9685   17.8314 F   0  0  0  0  0  0  0  0  0  0  0  0
   10.5579   -5.5652   24.5509 C   0  0  0  0  0  0  0  0  0  0  0  0
    6.9914   -7.7600   15.3657 C   0  0  0  0  0  0  0  0  0  0  0  0
    0.9553  -10.5627   18.2886 C   0  0  0  0  0  0  0  0  0  0  0  0
    1.1675  -10.5426   17.1922 P   0  0  0  0  0  0  0  0  0  0  0  0
    9.9743   -5.8237   17.4807 F   0  0  0  0  0  0  0  0  0  0  0  0
   10.0860   -4.6531   20.2334 C   0  0  0  0  0  0  0  0  0  0  0  0
    2.9574   -9.7922   17.2689 He  0  0  0  0  0  0  0  0  0  0  0  0
   12.0691   -4.2024   22.8466 He  0  0  0  0  0  0  0  0  0  0  0  0
    3.9312   -7.6455   16.1394 He  0  0  0  0  0  0  0  0  0  0  0  0
    1.9213  -10.0862   17.0273 He  0  0  0  0  0  0  0  0  0  0  0  0
   11.0136   -4.3403   22.8110 He  0  0  0  0  0  0  0  0  0  0  0  0
    8.1616   -7.4219   17.6160 He  0  0  0  0  0  0  0  0  0  0  0  0
    2.4237  -11.7257   18.9339 He  0  0  0  0  0  0  0  0  0  0  0  0
    0.5265  -11.8302   18.5087 He  0  0  0  0  0  0  0  0  0  0  0  0
    8.2112   -7.2958   15.6948 He  0  0  0  0  0  0  0  0  0  0  0  0
    6.8469   -7.8811   16.5974 He  0  0  0  0  0  0  0  0  0  0  0  0
    5.8415   -8.2235   16.6691 He  0  0  0  0  0  0  0  0  0  0  0  0
    0.7344   -8.5541   16.3192 He  0  0  0  0  0  0  0  0  0  0  0  0
  1  3  3  0
  1  8  2  0
  1  9  1  0
  1 17  2  0
  1 19  2  0
  2  3  1  0
  2 13  2  0
  2 14  2  0
  2 16  4  0
  2 17  3  0
  2 19  2  0
  3 13  3  0
  3 14  2  0
  3 17  2  0
  3 18  1  0
  3 22  1  0
  4  6  2  0
  4  8  1  0
  4 12  1  0
  4 13  2  0
  4 18  3  0
  4 22  4  0
  5  9  1  0
  5 15  3  0
  6 10  1  0
  6 12  3  0
  6 14  1  0
  6 15  4  0
  6 19  2  0
  6 20  1  0
  7  8  2  0
  7 13  2  0
  7 15  3  0
  7 22  2  0
  8  9  4  0
  8 10  4  0
  8 21  2  0
  8 22  3  0
  9 10  4  0
  9 13  2  0
  9 16  3  0
  9 20  3  0
  9 21  2  0
 10 12  3  0
 10 18  1  0
 10 21  4  0
 11 12  2  0
 11 15  2  0
 11 21  4  0
 12 16  1  0
 12 19  1  0
 13 22  3  0
 14 15  3  0
 14 17  3  0
 15 16  3  0
 16 18  1  0
 16 22  2  0
 17 18  4  0
 17 20  3  0
 18 21  3  0
 19 20  4  0
 19 21  4  0
M  END
$$$$

 Created by Python create_sdf_string function

 34 24  0  0  0  0  0  0  0  0999 V2000
   12.3571   -5.6770   19.0903 C   0  0  0  0  0  0  0  0  0  0  0  0
    1.0431  -12.4102   20.4173 C   0  0  0  0  0  0  0  0  0  0  0  0
    7.4617   -6.2238   16.4105 C   0  0  0  0  0  0  0  0  0  0  0  0
    3.2121   -9.5303   17.1803 N   0  0  0  0  0  0  0  0  0  0  0  0
    2.0421   -8.8896   16.5423 C   0  0  0  0  0  0  0  0  0  0  0  0
   12.1696   -4.6439   23.2975 C   0  0  0  0  0  0  0  0  0  0  0  0
    8.1785   -6.1738   16.6541 C   0  0  0  0  0  0  0  0  0  0  0  0
   12.4658   -4.4464   21.9028 C   0  0  0  0  0  0  0  0  0  0  0  0
   12.2495   -5.7473   18.4312 C   0  0  0  0  0  0  0  0  0  0  0  0
    5.1918   -7.4586   15.7485 C   0  0  0  0  0  0  0  0  0  0  0  0
    3.8040   -8.0021   16.1716 C   0  0  0  0  0  0  0  0  0  0  0  0
    1.4086   -9.9599   17.4004 C   0  0  0  0  0  0  0  0  0  0  0  0
   11.1600   -4.3426   22.5291 C   0  0  0  0  0  0  0  0  0  0  0  0
    8.8889   -7.1654   17.6147 C   0  0  0  0  0  0  0  0  0  0  0  0
   11.6666   -5.1901   19.5832 C   0  0  0  0  0  0  0  0  0  0  0  0
    4.5223   -8.4851   16.2589 N   0  0  0  0  0  0  0  0  0  0  0  0
    2.1773   -7.9873   16.1274 N   0  0  0  0  0  0  0  0  0  0  0  0
    2.4948  -11.4567   19.2570 C   0  0  0  0  0  0  0  0  0  0  0  0
    8.6676   -8.2140   17.4069 C   0  0  0  0  0  0  0  0  0  0  0  0
   11.5383   -4.7116   21.0695 C   0  0  0  0  0  0  0  0  0  0  0  0
    2.0317  -12.1031   20.3049 C   0  0  0  0  0  0  0  0  0  0  0  0
    0.2893  -11.9717   19.1663 C   0  0  0  0  0  0  0  0  0  0  0  0
   12.9288   -4.7009   23.6670 N   0  0  0  0  0  0  0  0  0  0  0  0
    9.9871   -6.0387   18.2610 C   0  0  0  0  0  0  0  0  0  0  0  0
    8.1702   -7.2984   15.7448 C   0  0  0  0  0  0  0  0  0  0  0  0
   11.3768   -4.8709   24.0261 C   0  0  0  0  0  0  0  0  0  0  0  0
    6.8134   -8.3684   16.5508 C   0  0  0  0  0  0  0  0  0  0  0  0
    5.8067   -8.0791   16.9185 C   0  0  0  0  0  0  0  0  0  0  0  0
    6.8739   -7.8504   15.8029 C   0  0  0  0  0  0  0  0  0  0  0  0
    0.5668  -11.2152   18.3912 C   0  0  0  0  0  0  0  0  0  0  0  0
    1.2470  -10.6027   17.9794 C   0  0  0  0  0  0  0  0  0  0  0  0
   10.0915   -5.9519   17.8995 C   0  0  0  0  0  0  0  0  0  0  0  0
    0.8105   -8.9920   16.4730 C   0  0  0  0  0  0  0  0  0  0  0  0
   10.4013   -4.6923   19.9845 C   0  0  0  0  0  0  0  0  0  0  0  0
  1  9  4  0
  1 15  4  0
  2 21  4  0
  2 22  4  0
  3  7  1  0
  3 25  1  0
  4  5  4  0
  5 17  4  0
  6 23  1  0
  6 26  4  0
  8 23  4  0
 11 17  4  0
 12 31  4  0
 12 33  4  0
 13 20  4  0
 13 26  4  0
 14 19  1  0
 15 34  4  0
 18 21  4  0
 20 34  4  0
 22 30  4  0
 24 32  4  0
 27 29  1  0
 30 31  4  0
M  END
$$$$

 Created by Python create_sdf_string function

 34 73  0  0  0  0  0  0  0  0999 V2000
   14.0267   -6.2460   19.0360 B   0  0  0  0  0  0  0  0  0  0  0  0
    2.1425  -10.8298   16.3067 N   0  0  0  0  0  0  0  0  0  0  0  0
    2.7731   -7.8138   16.4881 F   0  0  0  0  0  0  0  0  0  0  0  0
   12.2769   -3.6880   23.8472 F   0  0  0  0  0  0  0  0  0  0  0  0
    6.8523   -4.5923   16.6685 C   0  0  0  0  0  0  0  0  0  0  0  0
   12.2253   -5.6676   18.4536 C   0  0  0  0  0  0  0  0  0  0  0  0
    2.9076   -9.1223   16.2745 C   0  0  0  0  0  0  0  0  0  0  0  0
   10.3754   -3.9231   22.8823 O   0  0  0  0  0  0  0  0  0  0  0  0
    8.0608   -7.7526   17.9886 C   0  0  0  0  0  0  0  0  0  0  0  0
    6.0002   -8.1930   16.2702 P   0  0  0  0  0  0  0  0  0  0  0  0
    2.7244   -7.6463   15.4608 N   0  0  0  0  0  0  0  0  0  0  0  0
    1.9228  -12.2169   19.7226 N   0  0  0  0  0  0  0  0  0  0  0  0
    1.8261  -11.8202   20.2830 O   0  0  0  0  0  0  0  0  0  0  0  0
   12.7372   -5.0966   22.8044 N   0  0  0  0  0  0  0  0  0  0  0  0
    9.3272   -5.2475   19.5302 C   0  0  0  0  0  0  0  0  0  0  0  0
    6.8172   -7.5215   16.2687 C   0  0  0  0  0  0  0  0  0  0  0  0
   10.1281   -5.0786   24.2650 Se  0  0  0  0  0  0  0  0  0  0  0  0
    5.3152   -8.1838   15.9685 Se  0  0  0  0  0  0  0  0  0  0  0  0
    0.0222  -11.2042   19.4772 C   0  0  0  0  0  0  0  0  0  0  0  0
   11.3626   -6.7135   18.4631 S   0  0  0  0  0  0  0  0  0  0  0  0
    0.3919   -8.4380   16.7943 C   0  0  0  0  0  0  0  0  0  0  0  0
   10.9144   -4.3836   20.1913 C   0  0  0  0  0  0  0  0  0  0  0  0
    0.0837  -12.2349   21.0587 He  0  0  0  0  0  0  0  0  0  0  0  0
    6.7409   -5.9588   17.5268 He  0  0  0  0  0  0  0  0  0  0  0  0
   12.5465   -4.4741   21.5687 He  0  0  0  0  0  0  0  0  0  0  0  0
    5.0375   -7.9758   15.9207 He  0  0  0  0  0  0  0  0  0  0  0  0
    2.5674   -7.2270   17.0243 He  0  0  0  0  0  0  0  0  0  0  0  0
   13.0220   -5.9981   18.8623 He  0  0  0  0  0  0  0  0  0  0  0  0
    9.5233   -8.3917   17.5976 He  0  0  0  0  0  0  0  0  0  0  0  0
   12.2891   -3.9020   20.3302 He  0  0  0  0  0  0  0  0  0  0  0  0
    1.1849  -12.5684   18.8450 He  0  0  0  0  0  0  0  0  0  0  0  0
    5.7936   -7.4896   17.2604 He  0  0  0  0  0  0  0  0  0  0  0  0
    6.5095   -8.3836   17.2025 He  0  0  0  0  0  0  0  0  0  0  0  0
    2.0364  -11.1153   18.3222 He  0  0  0  0  0  0  0  0  0  0  0  0
  1  2  1  0
  1  4  4  0
  1  5  2  0
  1  6  4  0
  1  7  2  0
  1  8  1  0
  1 13  4  0
  1 18  1  0
  1 20  2  0
  2  3  4  0
  2  8  2  0
  2 11  3  0
  2 15  4  0
  2 17  2  0
  2 18  3  0
  2 20  1  0
  2 22  2  0
  3  4  3  0
  3  6  2  0
  3  8  1  0
  3  9  3  0
  3 12  3  0
  3 15  2  0
  3 16  2  0
  4 13  3  0
  4 14  1  0
  4 17  3  0
  5 12  4  0
  5 15  1  0
  5 16  2  0
  6  8  3  0
  6 11  1  0
  6 12  2  0
  6 15  3  0
  6 16  1  0
  6 17  2  0
  6 21  3  0
  7 12  3  0
  7 15  1  0
  7 21  1  0
  8 13  1  0
  8 15  4  0
  8 21  2  0
  9 11  3  0
  9 12  3  0
  9 15  1  0
  9 16  1  0
  9 17  4  0
 10 13  1  0
 10 17  4  0
 10 19  2  0
 11 14  4  0
 11 15  3  0
 11 19  2  0
 12 13  4  0
 12 14  2  0
 13 15  4  0
 13 18  2  0
 13 21  1  0
 13 22  1  0
 14 19  4  0
 14 21  2  0
 14 22  2  0
 15 17  2  0
 15 20  1  0
 16 19  2  0
 16 20  3  0
 17 19  4  0
 17 20  2  0
 17 22  4  0
 18 19  4  0
 18 20  2  0
 20 21  1  0
M  END
$$$$

 Created by Python create_sdf_string function

 34 21  0  0  0  0  0  0  0  0999 V2000
   13.1156   -5.7260   19.2497 C   0  0  0  0  0  0  0  0  0  0  0  0
    0.4847  -12.1558   20.6010 C   0  0  0  0  0  0  0  0  0  0  0  0
    7.5656   -6.4581   17.1735 C   0  0  0  0  0  0  0  0  0  0  0  0
    1.5535  -10.1201   17.0754 N   0  0  0  0  0  0  0  0  0  0  0  0
    2.4338   -8.4686   16.4389 C   0  0  0  0  0  0  0  0  0  0  0  0
   11.9075   -4.2081   23.4900 C   0  0  0  0  0  0  0  0  0  0  0  0
    8.3307   -5.7838   16.6461 C   0  0  0  0  0  0  0  0  0  0  0  0
   12.5839   -4.6158   21.6339 C   0  0  0  0  0  0  0  0  0  0  0  0
   12.1005   -5.8791   18.6680 C   0  0  0  0  0  0  0  0  0  0  0  0
    4.8486   -8.0327   16.1195 C   0  0  0  0  0  0  0  0  0  0  0  0
    2.3564   -7.6623   16.4546 C   0  0  0  0  0  0  0  0  0  0  0  0
    2.0108   -9.3217   16.9117 C   0  0  0  0  0  0  0  0  0  0  0  0
   10.8000   -3.7312   22.6868 O   0  0  0  0  0  0  0  0  0  0  0  0
    8.7182   -7.8148   17.6647 C   0  0  0  0  0  0  0  0  0  0  0  0
   12.7090   -5.5746   19.5359 C   0  0  0  0  0  0  0  0  0  0  0  0
    6.2427   -8.3677   16.2802 C   0  0  0  0  0  0  0  0  0  0  0  0
    2.9225   -7.9379   15.7533 N   0  0  0  0  0  0  0  0  0  0  0  0
    2.0317  -11.8870   20.1139 N   0  0  0  0  0  0  0  0  0  0  0  0
    9.3813   -7.6105   17.8929 C   0  0  0  0  0  0  0  0  0  0  0  0
   11.8123   -4.5053   21.1632 C   0  0  0  0  0  0  0  0  0  0  0  0
    1.6610  -11.8211   20.3343 C   0  0  0  0  0  0  0  0  0  0  0  0
    0.7013  -12.1035   19.0468 C   0  0  0  0  0  0  0  0  0  0  0  0
   12.8435   -4.5140   22.5109 N   0  0  0  0  0  0  0  0  0  0  0  0
    9.8512   -5.8841   18.4837 C   0  0  0  0  0  0  0  0  0  0  0  0
    7.3284   -7.4415   16.7842 C   0  0  0  0  0  0  0  0  0  0  0  0
   11.0410   -4.2179   23.6372 C   0  0  0  0  0  0  0  0  0  0  0  0
    5.8651   -7.4981   17.2904 C   0  0  0  0  0  0  0  0  0  0  0  0
    5.0020   -8.2524   16.0121 C   0  0  0  0  0  0  0  0  0  0  0  0
    7.0023   -8.3307   17.2650 C   0  0  0  0  0  0  0  0  0  0  0  0
    0.6995  -11.1871   18.8840 C   0  0  0  0  0  0  0  0  0  0  0  0
    1.3450  -10.8101   18.3975 C   0  0  0  0  0  0  0  0  0  0  0  0
   10.6617   -6.2676   18.3792 C   0  0  0  0  0  0  0  0  0  0  0  0
    0.9684   -9.0707   16.9405 C   0  0  0  0  0  0  0  0  0  0  0  0
   11.0864   -4.7788   20.1532 C   0  0  0  0  0  0  0  0  0  0  0  0
  1  9  4  0
  1 15  4  0
  2 21  4  0
  2 22  4  0
  3  7  1  0
  3 25  1  0
  5 11  4  0
  6 23  4  0
  6 26  4  0
  8 20  4  0
  8 23  4  0
 10 28  1  0
 13 26  4  0
 14 19  1  0
 14 25  1  0
 14 29  1  0
 18 21  4  0
 20 34  4  0
 22 30  4  0
 24 32  1  0
 30 31  4  0
M  END
$$$$

 Created by Python create_sdf_string function

 34 38  0  0  0  0  0  0  0  0999 V2000
    1.4329  -13.2498   19.6717 Cl  0  0  0  0  0  0  0  0  0  0  0  0
   11.8351   -5.0454   23.6974 C   0  0  0  0  0  0  0  0  0  0  0  0
    7.3932   -7.4149   17.4418 C   0  0  0  0  0  0  0  0  0  0  0  0
   13.0655   -5.6657   21.9297 F   0  0  0  0  0  0  0  0  0  0  0  0
   12.5224   -5.9084   18.4674 F   0  0  0  0  0  0  0  0  0  0  0  0
    5.2794   -8.4532   15.4533 C   0  0  0  0  0  0  0  0  0  0  0  0
    2.7981   -7.6009   15.8540 C   0  0  0  0  0  0  0  0  0  0  0  0
   11.2076   -4.4484   21.7187 O   0  0  0  0  0  0  0  0  0  0  0  0
   12.2910   -5.7456   20.0207 C   0  0  0  0  0  0  0  0  0  0  0  0
    6.5949  -10.0341   16.0473 C   0  0  0  0  0  0  0  0  0  0  0  0
    2.1478   -7.9268   16.3982 N   0  0  0  0  0  0  0  0  0  0  0  0
    3.1319  -12.0250   19.7049 P   0  0  0  0  0  0  0  0  0  0  0  0
   11.5752   -4.4453   21.4797 O   0  0  0  0  0  0  0  0  0  0  0  0
    2.0151  -12.6631   18.8248 N   0  0  0  0  0  0  0  0  0  0  0  0
   -0.5622  -11.8600   19.1661 O   0  0  0  0  0  0  0  0  0  0  0  0
    7.5983   -8.3235   16.7365 Br  0  0  0  0  0  0  0  0  0  0  0  0
    5.9200   -8.2104   17.2314 C   0  0  0  0  0  0  0  0  0  0  0  0
    7.5945   -9.1582   17.8662 C   0  0  0  0  0  0  0  0  0  0  0  0
   13.4140   -6.4192   18.7266 He  0  0  0  0  0  0  0  0  0  0  0  0
    6.6145   -7.4444   17.9460 He  0  0  0  0  0  0  0  0  0  0  0  0
    1.1957  -10.2363   17.7765 He  0  0  0  0  0  0  0  0  0  0  0  0
    3.0837   -9.5321   16.5688 He  0  0  0  0  0  0  0  0  0  0  0  0
    1.9392  -10.3486   17.9109 He  0  0  0  0  0  0  0  0  0  0  0  0
    9.1768   -7.5889   17.7212 He  0  0  0  0  0  0  0  0  0  0  0  0
    8.5289   -7.0677   17.8378 He  0  0  0  0  0  0  0  0  0  0  0  0
   13.7235   -5.0731   21.6959 He  0  0  0  0  0  0  0  0  0  0  0  0
    9.3870   -5.5740   18.9820 He  0  0  0  0  0  0  0  0  0  0  0  0
   12.2855   -3.5656   23.0905 He  0  0  0  0  0  0  0  0  0  0  0  0
    4.5881   -7.8822   14.9189 He  0  0  0  0  0  0  0  0  0  0  0  0
    0.1978  -11.6022   18.6207 He  0  0  0  0  0  0  0  0  0  0  0  0
    1.7345  -10.6000   17.5950 He  0  0  0  0  0  0  0  0  0  0  0  0
   10.5554   -6.6830   17.2474 He  0  0  0  0  0  0  0  0  0  0  0  0
    1.0688   -8.5781   15.6286 He  0  0  0  0  0  0  0  0  0  0  0  0
   10.0803   -5.3196   19.7191 He  0  0  0  0  0  0  0  0  0  0  0  0
  1  5  1  0
  1  6  4  0
  1 10  3  0
  1 13  4  0
  2  3  2  0
  2  8  1  0
  2 11  4  0
  2 17  1  0
  3 12  2  0
  3 15  4  0
  4  9  1  0
  4 10  3  0
  4 13  2  0
  5  6  2  0
  5  8  2  0
  5  9  2  0
  5 17  1  0
  5 18  1  0
  6  8  4  0
  6 12  2  0
  6 16  1  0
  7 10  4  0
  7 15  1  0
  7 18  1  0
  8 12  4  0
  9 10  1  0
  9 18  4  0
 10 14  2  0
 10 15  2  0
 10 17  1  0
 11 13  3  0
 12 14  1  0
 12 17  4  0
 12 18  2  0
 13 17  1  0
 14 17  3  0
 14 18  4  0
 15 16  4  0
M  END
$$$$

 Created by Python create_sdf_string function

 34 25  0  0  0  0  0  0  0  0999 V2000
   12.7357   -5.9385   18.7188 C   0  0  0  0  0  0  0  0  0  0  0  0
    1.3001  -12.7835   19.6838 C   0  0  0  0  0  0  0  0  0  0  0  0
    6.5837   -7.3048   17.1821 C   0  0  0  0  0  0  0  0  0  0  0  0
    0.9717  -10.6590   17.8913 C   0  0  0  0  0  0  0  0  0  0  0  0
    3.1814   -9.1186   16.6100 C   0  0  0  0  0  0  0  0  0  0  0  0
   11.8705   -4.2592   23.3113 C   0  0  0  0  0  0  0  0  0  0  0  0
    7.2905   -6.9571   17.3999 C   0  0  0  0  0  0  0  0  0  0  0  0
   12.7486   -5.0361   21.2132 C   0  0  0  0  0  0  0  0  0  0  0  0
   12.3868   -5.8688   18.6161 C   0  0  0  0  0  0  0  0  0  0  0  0
    5.3807   -8.1292   15.8970 C   0  0  0  0  0  0  0  0  0  0  0  0
    3.1159   -8.3882   16.0878 C   0  0  0  0  0  0  0  0  0  0  0  0
    1.7832   -9.7634   17.2339 C   0  0  0  0  0  0  0  0  0  0  0  0
   11.0830   -4.2744   22.0797 C   0  0  0  0  0  0  0  0  0  0  0  0
    8.8150   -7.5450   17.7013 C   0  0  0  0  0  0  0  0  0  0  0  0
   12.5802   -5.4915   19.7075 C   0  0  0  0  0  0  0  0  0  0  0  0
    6.2233   -9.6642   16.1425 C   0  0  0  0  0  0  0  0  0  0  0  0
    2.3449   -8.5775   16.4278 N   0  0  0  0  0  0  0  0  0  0  0  0
    2.6455  -11.7395   19.1152 C   0  0  0  0  0  0  0  0  0  0  0  0
    8.9801   -6.6301   17.8878 C   0  0  0  0  0  0  0  0  0  0  0  0
   11.4142   -4.6987   21.1809 C   0  0  0  0  0  0  0  0  0  0  0  0
    2.2346  -12.1882   19.2425 C   0  0  0  0  0  0  0  0  0  0  0  0
   -0.1866  -12.0395   19.0563 C   0  0  0  0  0  0  0  0  0  0  0  0
   13.3979   -4.9888   22.0027 C   0  0  0  0  0  0  0  0  0  0  0  0
    9.8459   -5.5114   18.8338 C   0  0  0  0  0  0  0  0  0  0  0  0
    7.4188   -8.2087   16.4389 C   0  0  0  0  0  0  0  0  0  0  0  0
   12.7042   -4.4223   23.3120 C   0  0  0  0  0  0  0  0  0  0  0  0
    5.8872   -8.9036   16.7787 C   0  0  0  0  0  0  0  0  0  0  0  0
    4.9477   -8.0368   15.3939 C   0  0  0  0  0  0  0  0  0  0  0  0
    7.6361   -8.6025   17.3393 C   0  0  0  0  0  0  0  0  0  0  0  0
    0.3355  -11.4543   18.6320 C   0  0  0  0  0  0  0  0  0  0  0  0
    1.7033  -10.4728   17.7915 C   0  0  0  0  0  0  0  0  0  0  0  0
   10.3952   -6.2791   17.9186 C   0  0  0  0  0  0  0  0  0  0  0  0
    1.3004   -9.0303   16.1475 C   0  0  0  0  0  0  0  0  0  0  0  0
   10.6101   -4.9285   19.9472 C   0  0  0  0  0  0  0  0  0  0  0  0
  1  9  4  0
  1 15  4  0
  2 21  4  0
  3  7  1  0
  4 30  4  0
  4 31  4  0
  5 11  4  0
  6 13  4  0
  6 26  4  0
  8 15  1  0
  8 20  4  0
  8 23  4  0
 10 28  1  0
 12 33  4  0
 13 20  4  0
 14 19  1  0
 16 27  1  0
 18 21  4  0
 19 32  1  0
 20 34  4  0
 22 30  4  0
 23 26  4  0
 24 32  4  0
 24 34  4  0
 25 29  1  0
M  END
$$$$

 Created by Python create_sdf_string function

 34107  0  0  0  0  0  0  0  0999 V2000
   13.3253   -6.1342   19.3637 C   0  0  0  0  0  0  0  0  0  0  0  0
    1.5287  -12.1239   19.2055 C   0  0  0  0  0  0  0  0  0  0  0  0
    5.8988   -7.9311   18.6692 C   0  0  0  0  0  0  0  0  0  0  0  0
    0.5830  -11.5419   17.8889 C   0  0  0  0  0  0  0  0  0  0  0  0
    3.4801   -9.8108   17.2797 C   0  0  0  0  0  0  0  0  0  0  0  0
   12.2819   -3.8590   23.4559 C   0  0  0  0  0  0  0  0  0  0  0  0
    6.4243   -7.9669   17.3396 C   0  0  0  0  0  0  0  0  0  0  0  0
   12.6121   -4.9153   21.3958 N   0  0  0  0  0  0  0  0  0  0  0  0
   11.9679   -4.9536   19.0591 C   0  0  0  0  0  0  0  0  0  0  0  0
    6.8047   -7.4929   15.3687 C   0  0  0  0  0  0  0  0  0  0  0  0
    3.1022   -9.4059   15.1400 P   0  0  0  0  0  0  0  0  0  0  0  0
    1.5734   -9.3795   16.6978 C   0  0  0  0  0  0  0  0  0  0  0  0
   11.4725   -3.9445   22.1220 F   0  0  0  0  0  0  0  0  0  0  0  0
    8.2259   -8.2143   16.9291 C   0  0  0  0  0  0  0  0  0  0  0  0
    2.8902  -12.9983   19.5559 C   0  0  0  0  0  0  0  0  0  0  0  0
   10.1839   -5.4995   20.1578 C   0  0  0  0  0  0  0  0  0  0  0  0
    1.7162  -12.1525   19.7725 P   0  0  0  0  0  0  0  0  0  0  0  0
    0.4388  -12.9679   19.4287 I   0  0  0  0  0  0  0  0  0  0  0  0
   14.1556   -3.9352   22.2140 C   0  0  0  0  0  0  0  0  0  0  0  0
    9.9681   -5.2472   19.4598 C   0  0  0  0  0  0  0  0  0  0  0  0
    7.4773   -8.6865   16.6651 C   0  0  0  0  0  0  0  0  0  0  0  0
   13.0226   -3.9054   23.7637 C   0  0  0  0  0  0  0  0  0  0  0  0
    8.5785   -9.4406   17.4009 Cl  0  0  0  0  0  0  0  0  0  0  0  0
   -0.2366  -10.9505   18.7597 C   0  0  0  0  0  0  0  0  0  0  0  0
    0.7323  -10.9012   17.3080 F   0  0  0  0  0  0  0  0  0  0  0  0
    9.6459   -4.8561   18.8445 Cl  0  0  0  0  0  0  0  0  0  0  0  0
    1.8803   -8.9436   16.2300 C   0  0  0  0  0  0  0  0  0  0  0  0
   10.6880   -4.2918   19.9535 C   0  0  0  0  0  0  0  0  0  0  0  0
   12.9028   -4.7329   18.9923 He  0  0  0  0  0  0  0  0  0  0  0  0
    7.0587   -9.8122   16.1930 He  0  0  0  0  0  0  0  0  0  0  0  0
    3.0811   -9.5364   15.6381 He  0  0  0  0  0  0  0  0  0  0  0  0
    8.8983   -6.1279   19.4791 He  0  0  0  0  0  0  0  0  0  0  0  0
    5.5504   -8.8457   16.7247 He  0  0  0  0  0  0  0  0  0  0  0  0
    5.1869   -8.7952   14.8320 He  0  0  0  0  0  0  0  0  0  0  0  0
  1  6  2  0
  1  7  2  0
  1  8  4  0
  1 17  3  0
  1 23  3  0
  2 12  2  0
  2 17  4  0
  2 18  1  0
  2 19  1  0
  2 23  2  0
  2 25  4  0
  3  8  4  0
  3 10  4  0
  3 15  4  0
  3 19  4  0
  3 22  1  0
  3 24  2  0
  4  9  1  0
  4 13  2  0
  4 16  2  0
  4 20  4  0
  4 24  4  0
  5  6  4  0
  5  8  3  0
  5 12  4  0
  5 13  3  0
  5 16  4  0
  5 17  4  0
  5 22  2  0
  5 25  1  0
  5 26  1  0
  6 13  4  0
  6 15  2  0
  6 17  4  0
  6 19  3  0
  6 22  4  0
  6 23  3  0
  6 26  3  0
  6 27  3  0
  7  9  2  0
  7 10  4  0
  7 12  2  0
  7 14  4  0
  7 15  1  0
  7 18  3  0
  7 21  1  0
  7 22  1  0
  7 27  1  0
  8 16  4  0
  8 18  4  0
  8 23  2  0
  9 10  3  0
  9 11  3  0
  9 13  1  0
  9 16  4  0
  9 17  2  0
  9 19  3  0
  9 25  3  0
  9 26  3  0
  9 27  1  0
 10 11  2  0
 10 12  2  0
 10 15  2  0
 10 16  2  0
 10 20  2  0
 10 26  1  0
 11 12  3  0
 11 15  4  0
 11 16  1  0
 11 19  3  0
 11 22  1  0
 11 23  2  0
 11 24  1  0
 12 13  3  0
 12 18  1  0
 12 27  1  0
 13 23  4  0
 14 15  4  0
 14 17  1  0
 14 18  1  0
 14 20  3  0
 15 16  3  0
 15 17  4  0
 15 26  3  0
 16 19  3  0
 16 22  2  0
 16 27  1  0
 17 19  4  0
 17 21  2  0
 18 20  3  0
 18 21  2  0
 18 23  1  0
 18 24  4  0
 18 26  3  0
 18 27  2  0
 19 22  4  0
 19 26  1  0
 20 23  1  0
 20 25  2  0
 20 28  4  0
 21 23  1  0
 21 27  1  0
 22 26  3  0
 22 27  2  0
 24 26  3  0
 25 26  4  0
 25 28  2  0
M  END
$$$$

 Created by Python create_sdf_string function

 34 31  0  0  0  0  0  0  0  0999 V2000
   13.0085   -5.3695   20.1000 C   0  0  0  0  0  0  0  0  0  0  0  0
    1.8478  -11.3893   18.7380 C   0  0  0  0  0  0  0  0  0  0  0  0
    6.1636   -7.6387   18.0147 C   0  0  0  0  0  0  0  0  0  0  0  0
    0.6341  -11.0679   18.0733 C   0  0  0  0  0  0  0  0  0  0  0  0
    3.3774   -9.7452   17.2657 C   0  0  0  0  0  0  0  0  0  0  0  0
   11.9312   -3.8428   23.2412 C   0  0  0  0  0  0  0  0  0  0  0  0
    6.5226   -7.6850   17.3069 C   0  0  0  0  0  0  0  0  0  0  0  0
   12.7452   -4.7739   21.2206 C   0  0  0  0  0  0  0  0  0  0  0  0
   11.9521   -5.4461   18.9369 C   0  0  0  0  0  0  0  0  0  0  0  0
    6.3683   -7.9606   15.7920 C   0  0  0  0  0  0  0  0  0  0  0  0
    3.4180   -8.8695   15.4180 C   0  0  0  0  0  0  0  0  0  0  0  0
    2.4050   -9.4096   16.7290 C   0  0  0  0  0  0  0  0  0  0  0  0
   11.2747   -4.1040   22.2150 C   0  0  0  0  0  0  0  0  0  0  0  0
    8.2338   -7.2163   17.5207 C   0  0  0  0  0  0  0  0  0  0  0  0
   12.9476   -5.4491   19.4794 C   0  0  0  0  0  0  0  0  0  0  0  0
    7.0114   -9.0108   15.9641 C   0  0  0  0  0  0  0  0  0  0  0  0
    3.0723   -8.9997   15.6695 C   0  0  0  0  0  0  0  0  0  0  0  0
    1.8543  -12.6347   19.8091 C   0  0  0  0  0  0  0  0  0  0  0  0
    8.9825   -6.3152   18.2475 N   0  0  0  0  0  0  0  0  0  0  0  0
   11.0698   -4.9783   19.9220 C   0  0  0  0  0  0  0  0  0  0  0  0
    2.4091  -12.0150   19.4223 C   0  0  0  0  0  0  0  0  0  0  0  0
    0.3604  -12.7245   19.5886 C   0  0  0  0  0  0  0  0  0  0  0  0
   13.6064   -4.5633   22.1743 C   0  0  0  0  0  0  0  0  0  0  0  0
   10.0641   -4.9418   19.0774 C   0  0  0  0  0  0  0  0  0  0  0  0
    7.9781   -8.3592   16.9376 C   0  0  0  0  0  0  0  0  0  0  0  0
   13.1804   -3.9565   23.2639 C   0  0  0  0  0  0  0  0  0  0  0  0
    4.9424   -8.6883   16.7381 C   0  0  0  0  0  0  0  0  0  0  0  0
    4.9908   -8.4424   15.3027 C   0  0  0  0  0  0  0  0  0  0  0  0
    8.7718   -8.4545   17.1664 C   0  0  0  0  0  0  0  0  0  0  0  0
   -0.0247  -11.9159   18.6660 C   0  0  0  0  0  0  0  0  0  0  0  0
    1.1215  -10.3703   17.6143 C   0  0  0  0  0  0  0  0  0  0  0  0
    9.6646   -5.3092   18.4176 C   0  0  0  0  0  0  0  0  0  0  0  0
    1.6328   -9.2417   16.3962 C   0  0  0  0  0  0  0  0  0  0  0  0
   10.6196   -4.5753   20.2340 C   0  0  0  0  0  0  0  0  0  0  0  0
  1  8  4  0
  2 21  4  0
  2 31  4  0
  3  7  1  0
  4 30  4  0
  4 31  4  0
  5 12  4  0
  6 13  4  0
  6 26  4  0
  8 23  4  0
  9 15  4  0
  9 20  4  0
 10 16  4  0
 10 28  1  0
 11 17  4  0
 11 28  1  0
 12 33  1  0
 14 19  1  0
 14 25  1  0
 16 25  4  0
 18 21  4  0
 18 22  4  0
 19 32  1  0
 20 34  4  0
 22 30  4  0
 23 26  4  0
 24 32  4  0
 24 34  4  0
 25 29  1  0
 27 28  1  0
 31 33  4  0
M  END
$$$$

 Created by Python create_sdf_string function

 34 77  0  0  0  0  0  0  0  0999 V2000
   12.6278   -6.1559   19.5141 Br  0  0  0  0  0  0  0  0  0  0  0  0
    6.2037   -8.0361   17.9308 C   0  0  0  0  0  0  0  0  0  0  0  0
   11.7609   -3.8191   23.8125 F   0  0  0  0  0  0  0  0  0  0  0  0
    6.8915   -7.3144   17.0529 P   0  0  0  0  0  0  0  0  0  0  0  0
   13.1709   -5.2470   20.4602 C   0  0  0  0  0  0  0  0  0  0  0  0
   10.8489   -4.4318   18.9419 C   0  0  0  0  0  0  0  0  0  0  0  0
    1.2064   -9.4223   16.7677 S   0  0  0  0  0  0  0  0  0  0  0  0
   10.5074   -4.2782   21.6251 C   0  0  0  0  0  0  0  0  0  0  0  0
    9.5056   -7.9691   17.9023 Cl  0  0  0  0  0  0  0  0  0  0  0  0
   13.1795   -5.7443   19.3103 C   0  0  0  0  0  0  0  0  0  0  0  0
    6.9348   -8.6514   17.0046 C   0  0  0  0  0  0  0  0  0  0  0  0
    2.4581   -7.9316   14.7405 C   0  0  0  0  0  0  0  0  0  0  0  0
    1.1617  -12.2148   18.7922 I   0  0  0  0  0  0  0  0  0  0  0  0
   11.1986   -4.9563   19.7441 O   0  0  0  0  0  0  0  0  0  0  0  0
   -0.5931  -12.3797   19.9546 C   0  0  0  0  0  0  0  0  0  0  0  0
   14.5538   -4.6754   22.9036 Se  0  0  0  0  0  0  0  0  0  0  0  0
   13.4183   -3.7926   23.6807 C   0  0  0  0  0  0  0  0  0  0  0  0
    4.6495   -7.8992   17.6911 C   0  0  0  0  0  0  0  0  0  0  0  0
    5.4464   -7.9598   14.7333 I   0  0  0  0  0  0  0  0  0  0  0  0
    0.4686  -11.8667   19.2410 C   0  0  0  0  0  0  0  0  0  0  0  0
    0.3730  -10.2625   18.7957 C   0  0  0  0  0  0  0  0  0  0  0  0
   10.3654   -4.9552   17.8364 F   0  0  0  0  0  0  0  0  0  0  0  0
    0.2755   -8.4770   16.6519 C   0  0  0  0  0  0  0  0  0  0  0  0
   10.6659   -3.6332   20.6233 C   0  0  0  0  0  0  0  0  0  0  0  0
    2.2444  -11.5145   18.7780 He  0  0  0  0  0  0  0  0  0  0  0  0
    1.2119  -10.8089   17.8980 He  0  0  0  0  0  0  0  0  0  0  0  0
    3.4619   -9.7920   16.6568 He  0  0  0  0  0  0  0  0  0  0  0  0
    6.8046   -7.4001   16.5376 He  0  0  0  0  0  0  0  0  0  0  0  0
    2.1884   -8.5703   13.9452 He  0  0  0  0  0  0  0  0  0  0  0  0
    9.3998   -4.8421   18.8880 He  0  0  0  0  0  0  0  0  0  0  0  0
    2.1149  -11.0403   18.9164 He  0  0  0  0  0  0  0  0  0  0  0  0
   11.4995   -5.3403   19.0570 He  0  0  0  0  0  0  0  0  0  0  0  0
    8.3179   -9.7152   16.4401 He  0  0  0  0  0  0  0  0  0  0  0  0
    8.1774   -7.6220   16.9409 He  0  0  0  0  0  0  0  0  0  0  0  0
  1  5  1  0
  1  6  3  0
  1 12  4  0
  1 14  1  0
  1 19  2  0
  1 23  2  0
  2  3  3  0
  2  4  1  0
  2  5  2  0
  2 12  4  0
  2 22  2  0
  3  8  2  0
  3  9  2  0
  3 16  4  0
  3 19  4  0
  3 20  4  0
  3 21  3  0
  3 22  3  0
  4 12  3  0
  4 14  2  0
  4 16  2  0
  4 18  4  0
  4 19  1  0
  4 20  1  0
  4 23  4  0
  5  9  1  0
  5 13  1  0
  6  7  1  0
  6  8  3  0
  6 13  3  0
  6 14  4  0
  6 19  4  0
  7 10  3  0
  7 11  1  0
  7 18  3  0
  8 12  4  0
  8 16  1  0
  8 18  2  0
  8 23  3  0
  9 12  2  0
  9 15  3  0
  9 16  1  0
  9 17  3  0
  9 19  1  0
  9 23  2  0
 10 11  4  0
 10 15  1  0
 10 16  2  0
 10 20  1  0
 11 14  4  0
 11 16  2  0
 11 21  1  0
 12 18  2  0
 12 19  4  0
 12 20  2  0
 12 24  1  0
 13 15  4  0
 13 18  1  0
 13 21  3  0
 13 24  1  0
 14 17  1  0
 14 21  4  0
 14 24  4  0
 15 20  4  0
 15 21  2  0
 15 22  3  0
 16 17  4  0
 16 19  2  0
 16 20  3  0
 16 21  4  0
 18 20  2  0
 18 22  4  0
 18 24  2  0
 19 20  1  0
 19 23  2  0
 21 23  4  0
 22 24  2  0
M  END
$$$$

 Created by Python create_sdf_string function

 34 32  0  0  0  0  0  0  0  0999 V2000
   12.9604   -5.8021   19.6455 C   0  0  0  0  0  0  0  0  0  0  0  0
    2.4567  -11.3580   18.7099 C   0  0  0  0  0  0  0  0  0  0  0  0
    6.0647   -7.8371   17.5787 C   0  0  0  0  0  0  0  0  0  0  0  0
    0.9995  -10.4208   17.9597 C   0  0  0  0  0  0  0  0  0  0  0  0
    3.0875   -9.0745   16.9416 C   0  0  0  0  0  0  0  0  0  0  0  0
   11.9780   -3.8613   23.3057 C   0  0  0  0  0  0  0  0  0  0  0  0
    6.3095   -7.6489   17.4142 C   0  0  0  0  0  0  0  0  0  0  0  0
   12.8657   -5.0791   21.0570 C   0  0  0  0  0  0  0  0  0  0  0  0
   11.2112   -4.9849   19.0049 C   0  0  0  0  0  0  0  0  0  0  0  0
    6.3319   -7.6977   16.4301 C   0  0  0  0  0  0  0  0  0  0  0  0
    2.4351   -8.5485   15.1001 C   0  0  0  0  0  0  0  0  0  0  0  0
    1.9544   -9.2036   16.6426 C   0  0  0  0  0  0  0  0  0  0  0  0
   11.1630   -3.9691   22.1360 C   0  0  0  0  0  0  0  0  0  0  0  0
    9.2789   -7.2030   17.9752 C   0  0  0  0  0  0  0  0  0  0  0  0
   12.9134   -5.9179   19.0337 C   0  0  0  0  0  0  0  0  0  0  0  0
    7.1202   -8.4292   16.4351 C   0  0  0  0  0  0  0  0  0  0  0  0
    3.0720   -8.0807   15.0054 C   0  0  0  0  0  0  0  0  0  0  0  0
    1.4436  -12.1859   19.6220 C   0  0  0  0  0  0  0  0  0  0  0  0
    9.4436   -5.5283   18.1828 C   0  0  0  0  0  0  0  0  0  0  0  0
   11.0659   -4.4616   20.0097 C   0  0  0  0  0  0  0  0  0  0  0  0
    2.1291  -11.0536   18.5078 C   0  0  0  0  0  0  0  0  0  0  0  0
    0.0342  -12.1945   19.6339 C   0  0  0  0  0  0  0  0  0  0  0  0
   13.5898   -4.9093   22.2783 C   0  0  0  0  0  0  0  0  0  0  0  0
   11.4870   -5.2209   18.5403 C   0  0  0  0  0  0  0  0  0  0  0  0
    8.1729   -8.4279   16.5825 C   0  0  0  0  0  0  0  0  0  0  0  0
   13.2034   -4.3276   23.1676 C   0  0  0  0  0  0  0  0  0  0  0  0
    4.7090   -8.2280   17.1945 C   0  0  0  0  0  0  0  0  0  0  0  0
    4.5668   -7.9338   15.4122 C   0  0  0  0  0  0  0  0  0  0  0  0
    8.4581   -7.5289   17.1491 C   0  0  0  0  0  0  0  0  0  0  0  0
   -0.1828  -11.4998   19.0882 C   0  0  0  0  0  0  0  0  0  0  0  0
   -0.0308  -10.3730   17.9630 C   0  0  0  0  0  0  0  0  0  0  0  0
    9.9772   -5.1680   17.4686 C   0  0  0  0  0  0  0  0  0  0  0  0
    0.5743   -9.0927   16.5939 C   0  0  0  0  0  0  0  0  0  0  0  0
   11.5003   -4.4317   21.0175 C   0  0  0  0  0  0  0  0  0  0  0  0
  1  8  4  0
  1 15  4  0
  2 18  4  0
  2 21  4  0
  3  7  1  0
  4 21  4  0
  4 31  4  0
  5 12  4  0
  5 27  4  0
  6 13  4  0
  6 26  4  0
  7 27  4  0
  8 23  4  0
  8 34  4  0
  9 20  4  0
  9 24  1  0
 11 17  4  0
 12 33  4  0
 13 34  4  0
 14 19  1  0
 14 29  1  0
 15 24  4  0
 16 25  4  0
 17 28  4  0
 18 22  4  0
 19 32  1  0
 20 34  4  0
 22 30  4  0
 23 26  4  0
 25 29  1  0
 30 31  4  0
 31 33  4  0
M  END
$$$$

 Created by Python create_sdf_string function

 34 93  0  0  0  0  0  0  0  0999 V2000
   13.7028   -5.4578   19.8725 C   0  0  0  0  0  0  0  0  0  0  0  0
    2.7278  -11.9298   18.6528 Cl  0  0  0  0  0  0  0  0  0  0  0  0
    5.8641   -7.9405   16.6101 O   0  0  0  0  0  0  0  0  0  0  0  0
    0.9045  -11.2652   17.7713 C   0  0  0  0  0  0  0  0  0  0  0  0
    4.2808   -8.7742   16.7009 Cl  0  0  0  0  0  0  0  0  0  0  0  0
   12.1026   -4.0144   23.6146 C   0  0  0  0  0  0  0  0  0  0  0  0
   13.0406   -5.2410   20.7820 C   0  0  0  0  0  0  0  0  0  0  0  0
   12.0214   -5.5171   18.9902 O   0  0  0  0  0  0  0  0  0  0  0  0
    6.5683   -7.2884   15.2333 C   0  0  0  0  0  0  0  0  0  0  0  0
    2.3759   -8.6409   15.8568 C   0  0  0  0  0  0  0  0  0  0  0  0
    2.0063   -9.7532   16.4973 O   0  0  0  0  0  0  0  0  0  0  0  0
   11.9475   -4.3519   21.7619 C   0  0  0  0  0  0  0  0  0  0  0  0
    7.1462   -7.7292   16.4508 O   0  0  0  0  0  0  0  0  0  0  0  0
    3.3660   -8.9995   15.3741 S   0  0  0  0  0  0  0  0  0  0  0  0
    0.5679  -12.8631   19.4455 B   0  0  0  0  0  0  0  0  0  0  0  0
    9.7616   -6.0728   18.6262 C   0  0  0  0  0  0  0  0  0  0  0  0
   11.8423   -4.0715   19.2509 O   0  0  0  0  0  0  0  0  0  0  0  0
    2.2790   -9.7848   17.5600 C   0  0  0  0  0  0  0  0  0  0  0  0
    0.9725  -12.3709   18.3704 Cl  0  0  0  0  0  0  0  0  0  0  0  0
   14.1395   -5.3863   22.1555 C   0  0  0  0  0  0  0  0  0  0  0  0
    2.9891   -8.1829   17.2940 C   0  0  0  0  0  0  0  0  0  0  0  0
    4.1405   -6.9903   15.3096 C   0  0  0  0  0  0  0  0  0  0  0  0
    8.3918   -6.9187   16.7499 C   0  0  0  0  0  0  0  0  0  0  0  0
    0.0635  -10.1188   17.8575 F   0  0  0  0  0  0  0  0  0  0  0  0
    9.0607   -5.2460   16.9912 C   0  0  0  0  0  0  0  0  0  0  0  0
    1.2685  -10.3853   16.8962 C   0  0  0  0  0  0  0  0  0  0  0  0
    7.1653   -7.2611   16.8634 He  0  0  0  0  0  0  0  0  0  0  0  0
    9.1338   -6.5646   17.3517 He  0  0  0  0  0  0  0  0  0  0  0  0
   13.1432   -6.0874   19.2628 He  0  0  0  0  0  0  0  0  0  0  0  0
   11.8618   -5.8258   18.5517 He  0  0  0  0  0  0  0  0  0  0  0  0
    8.2912   -8.1962   17.5660 He  0  0  0  0  0  0  0  0  0  0  0  0
   12.0216   -3.2408   22.8343 He  0  0  0  0  0  0  0  0  0  0  0  0
   -0.3858  -11.0343   20.2278 He  0  0  0  0  0  0  0  0  0  0  0  0
   12.1027   -4.7971   20.3234 He  0  0  0  0  0  0  0  0  0  0  0  0
  1  7  4  0
  1 19  1  0
  1 21  4  0
  1 26  3  0
  2 15  4  0
  3  5  4  0
  3  6  4  0
  3  7  2  0
  3 14  2  0
  3 16  3  0
  3 18  4  0
  3 19  4  0
  3 20  4  0
  3 23  1  0
  3 24  2  0
  4  8  4  0
  4 14  4  0
  4 18  3  0
  4 19  3  0
  4 20  2  0
  4 23  3  0
  4 26  4  0
  5  8  4  0
  5  9  4  0
  5 11  4  0
  5 15  2  0
  5 20  3  0
  5 25  2  0
  6  8  4  0
  6 10  4  0
  6 12  4  0
  6 13  2  0
  6 20  3  0
  6 21  3  0
  7 13  2  0
  7 14  2  0
  7 23  2  0
  7 24  2  0
  8 11  3  0
  8 12  1  0
  8 13  3  0
  8 14  1  0
  8 17  4  0
  8 22  1  0
  9 15  1  0
  9 17  1  0
  9 21  1  0
 10 11  3  0
 10 13  1  0
 10 15  2  0
 10 16  4  0
 10 18  1  0
 10 21  2  0
 10 24  2  0
 11 12  3  0
 11 16  2  0
 11 18  1  0
 11 20  1  0
 11 21  2  0
 11 24  1  0
 11 25  2  0
 12 23  2  0
 12 24  4  0
 13 16  1  0
 13 22  2  0
 13 24  2  0
 13 25  4  0
 14 16  2  0
 14 17  3  0
 14 18  2  0
 14 21  2  0
 14 22  2  0
 15 17  4  0
 15 24  4  0
 16 18  4  0
 16 21  4  0
 16 22  4  0
 16 25  4  0
 17 19  1  0
 17 20  3  0
 17 23  3  0
 18 19  4  0
 18 25  4  0
 19 22  1  0
 19 26  4  0
 20 21  3  0
 20 22  4  0
 22 23  3  0
 22 25  2  0
 22 26  1  0
 23 24  4  0
 24 25  4  0
 24 26  4  0
M  END
$$$$

 Created by Python create_sdf_string function

 34 26  0  0  0  0  0  0  0  0999 V2000
   13.5911   -5.8902   20.1287 C   0  0  0  0  0  0  0  0  0  0  0  0
    2.4474  -11.8194   18.9371 C   0  0  0  0  0  0  0  0  0  0  0  0
    5.8453   -8.0697   16.5380 C   0  0  0  0  0  0  0  0  0  0  0  0
    0.8482  -10.8668   17.8835 C   0  0  0  0  0  0  0  0  0  0  0  0
    4.8710   -8.5876   16.8772 C   0  0  0  0  0  0  0  0  0  0  0  0
   12.0781   -3.9868   22.9574 C   0  0  0  0  0  0  0  0  0  0  0  0
    7.4630   -7.3969   16.8846 C   0  0  0  0  0  0  0  0  0  0  0  0
   13.0989   -5.2805   20.9728 C   0  0  0  0  0  0  0  0  0  0  0  0
   11.5876   -5.4668   18.6858 C   0  0  0  0  0  0  0  0  0  0  0  0
    5.8253   -7.2267   15.4244 C   0  0  0  0  0  0  0  0  0  0  0  0
    2.5151   -8.6169   16.0894 C   0  0  0  0  0  0  0  0  0  0  0  0
    1.6777   -9.4150   16.7099 C   0  0  0  0  0  0  0  0  0  0  0  0
   11.4589   -4.0041   21.8512 C   0  0  0  0  0  0  0  0  0  0  0  0
    9.2147   -6.6265   17.6340 N   0  0  0  0  0  0  0  0  0  0  0  0
   13.0686   -6.0317   18.9456 C   0  0  0  0  0  0  0  0  0  0  0  0
    7.1744   -8.1583   16.5685 O   0  0  0  0  0  0  0  0  0  0  0  0
    3.6256   -8.0710   15.5907 C   0  0  0  0  0  0  0  0  0  0  0  0
    0.9371  -12.3454   19.7930 C   0  0  0  0  0  0  0  0  0  0  0  0
    9.8670   -5.7829   18.0116 C   0  0  0  0  0  0  0  0  0  0  0  0
   11.2705   -4.3471   19.6218 C   0  0  0  0  0  0  0  0  0  0  0  0
    2.0987  -10.0142   17.3334 C   0  0  0  0  0  0  0  0  0  0  0  0
    1.0933  -11.7676   19.1520 C   0  0  0  0  0  0  0  0  0  0  0  0
   13.6264   -5.1562   22.3115 C   0  0  0  0  0  0  0  0  0  0  0  0
   11.3859   -5.4873   18.6072 C   0  0  0  0  0  0  0  0  0  0  0  0
    8.5407   -7.8372   17.4689 C   0  0  0  0  0  0  0  0  0  0  0  0
   12.6966   -4.2425   23.1323 C   0  0  0  0  0  0  0  0  0  0  0  0
    2.9586   -8.3256   16.4233 C   0  0  0  0  0  0  0  0  0  0  0  0
    4.3685   -7.1804   15.0346 C   0  0  0  0  0  0  0  0  0  0  0  0
    8.3629   -6.3458   16.6356 C   0  0  0  0  0  0  0  0  0  0  0  0
   -0.3465  -11.4648   19.6409 C   0  0  0  0  0  0  0  0  0  0  0  0
   -0.2099  -10.4200   18.1001 C   0  0  0  0  0  0  0  0  0  0  0  0
    9.3139   -5.2453   16.9626 C   0  0  0  0  0  0  0  0  0  0  0  0
    0.6352  -10.3272   17.2859 C   0  0  0  0  0  0  0  0  0  0  0  0
   11.9032   -4.5610   20.7894 C   0  0  0  0  0  0  0  0  0  0  0  0
  1  8  4  0
  1 15  4  0
  2 18  4  0
  2 22  4  0
  3  5  4  0
  3 10  4  0
  4 33  4  0
  6 13  4  0
  6 26  4  0
  8 23  4  0
  8 34  4  0
  9 24  1  0
 10 28  4  0
 11 27  4  0
 12 21  1  0
 13 34  4  0
 17 28  4  0
 18 30  4  0
 19 24  4  0
 19 32  4  0
 20 24  4  0
 20 34  4  0
 22 30  4  0
 23 26  4  0
 29 32  4  0
 31 33  4  0
M  END
$$$$

 Created by Python create_sdf_string function

 34 88  0  0  0  0  0  0  0  0999 V2000
   13.4735   -6.5113   21.1116 C   0  0  0  0  0  0  0  0  0  0  0  0
    3.7712  -11.6562   19.5109 O   0  0  0  0  0  0  0  0  0  0  0  0
    7.1486   -7.1250   15.8443 P   0  0  0  0  0  0  0  0  0  0  0  0
    4.3132   -8.9004   15.8281 C   0  0  0  0  0  0  0  0  0  0  0  0
   11.8249   -4.4193   23.2865 C   0  0  0  0  0  0  0  0  0  0  0  0
   12.7511   -5.5609   21.5354 C   0  0  0  0  0  0  0  0  0  0  0  0
   11.8842   -5.8411   19.5389 C   0  0  0  0  0  0  0  0  0  0  0  0
    6.3003   -7.8838   15.2423 S   0  0  0  0  0  0  0  0  0  0  0  0
    3.0825   -9.8725   16.7410 C   0  0  0  0  0  0  0  0  0  0  0  0
    1.8865   -9.6264   16.4403 F   0  0  0  0  0  0  0  0  0  0  0  0
   10.4677   -4.9437   20.8536 N   0  0  0  0  0  0  0  0  0  0  0  0
   13.7982   -6.2360   18.7538 F   0  0  0  0  0  0  0  0  0  0  0  0
    5.6821   -9.1915   16.1934 O   0  0  0  0  0  0  0  0  0  0  0  0
    2.9443   -7.9021   15.3896 C   0  0  0  0  0  0  0  0  0  0  0  0
    0.5767  -12.2838   20.5119 Se  0  0  0  0  0  0  0  0  0  0  0  0
   10.5605   -5.2706   18.2733 P   0  0  0  0  0  0  0  0  0  0  0  0
   11.0980   -4.7897   19.4319 N   0  0  0  0  0  0  0  0  0  0  0  0
    1.3008  -11.4989   17.1998 C   0  0  0  0  0  0  0  0  0  0  0  0
    1.9396  -11.7698   18.8210 C   0  0  0  0  0  0  0  0  0  0  0  0
   12.3364   -4.8386   23.0438 C   0  0  0  0  0  0  0  0  0  0  0  0
   -0.6625  -10.8225   18.4505 C   0  0  0  0  0  0  0  0  0  0  0  0
    8.6157   -4.8455   17.0953 P   0  0  0  0  0  0  0  0  0  0  0  0
    1.0245  -10.4285   17.7077 Cl  0  0  0  0  0  0  0  0  0  0  0  0
   11.4003   -5.6433   19.4398 C   0  0  0  0  0  0  0  0  0  0  0  0
    2.2122  -10.6891   17.6235 He  0  0  0  0  0  0  0  0  0  0  0  0
    6.0670   -8.3584   15.8796 He  0  0  0  0  0  0  0  0  0  0  0  0
   10.1600   -6.6783   17.3903 He  0  0  0  0  0  0  0  0  0  0  0  0
   13.9866   -5.4221   23.0292 He  0  0  0  0  0  0  0  0  0  0  0  0
   11.5853   -5.2948   19.0454 He  0  0  0  0  0  0  0  0  0  0  0  0
    8.3389   -7.0710   16.2629 He  0  0  0  0  0  0  0  0  0  0  0  0
    2.7028   -8.7251   15.1223 He  0  0  0  0  0  0  0  0  0  0  0  0
    4.4532   -7.7939   15.9066 He  0  0  0  0  0  0  0  0  0  0  0  0
    8.4364   -5.9569   18.1705 He  0  0  0  0  0  0  0  0  0  0  0  0
   -0.0033  -12.1033   20.5811 He  0  0  0  0  0  0  0  0  0  0  0  0
  1  5  3  0
  1  6  4  0
  1  7  4  0
  1 13  3  0
  1 15  2  0
  1 17  3  0
  1 24  1  0
  2  4  3  0
  2  6  3  0
  2  7  4  0
  2  9  4  0
  2 11  2  0
  2 16  3  0
  2 21  3  0
  2 23  1  0
  3  4  2  0
  3  7  4  0
  3  8  3  0
  3 10  3  0
  3 11  4  0
  3 15  4  0
  3 21  2  0
  3 23  3  0
  4  6  2  0
  4  7  1  0
  4 11  3  0
  4 16  2  0
  4 24  4  0
  5  6  4  0
  5  9  2  0
  5 12  3  0
  5 20  4  0
  5 24  2  0
  6 10  2  0
  6 13  2  0
  6 14  3  0
  6 15  2  0
  6 16  4  0
  6 18  1  0
  6 20  1  0
  6 21  2  0
  6 23  2  0
  6 24  4  0
  7  9  1  0
  7 10  3  0
  7 17  2  0
  8 12  1  0
  8 16  4  0
  8 22  3  0
  9 10  3  0
  9 11  2  0
  9 15  2  0
 10 13  2  0
 10 15  1  0
 10 17  1  0
 10 19  3  0
 10 21  2  0
 10 23  4  0
 11 13  2  0
 11 14  4  0
 11 20  2  0
 11 21  1  0
 11 23  4  0
 12 16  4  0
 12 22  2  0
 12 23  3  0
 13 18  1  0
 13 20  4  0
 13 21  3  0
 13 22  2  0
 14 15  2  0
 14 16  3  0
 14 19  3  0
 14 20  2  0
 14 22  1  0
 14 23  1  0
 15 17  2  0
 15 21  1  0
 15 23  4  0
 16 20  1  0
 16 23  4  0
 17 20  4  0
 17 21  4  0
 19 21  2  0
 19 24  1  0
 20 21  4  0
 21 23  4  0
 23 24  4  0
M  END
$$$$

 Created by Python create_sdf_string function

 34 27  0  0  0  0  0  0  0  0999 V2000
   13.2943   -5.5539   20.9810 C   0  0  0  0  0  0  0  0  0  0  0  0
    3.3193  -11.1411   18.7649 C   0  0  0  0  0  0  0  0  0  0  0  0
    7.3679   -7.2071   15.9177 C   0  0  0  0  0  0  0  0  0  0  0  0
    2.6948  -10.4801   17.9087 C   0  0  0  0  0  0  0  0  0  0  0  0
    4.2365   -9.0883   16.4198 C   0  0  0  0  0  0  0  0  0  0  0  0
   11.7334   -4.6465   22.8949 C   0  0  0  0  0  0  0  0  0  0  0  0
    6.6563   -7.9624   16.0396 C   0  0  0  0  0  0  0  0  0  0  0  0
   12.6915   -5.1891   21.5937 C   0  0  0  0  0  0  0  0  0  0  0  0
   12.8039   -5.6321   19.8351 C   0  0  0  0  0  0  0  0  0  0  0  0
    6.3706   -8.0589   15.7325 C   0  0  0  0  0  0  0  0  0  0  0  0
    3.3199  -10.0388   17.4100 C   0  0  0  0  0  0  0  0  0  0  0  0
    1.6127   -9.5523   16.5297 N   0  0  0  0  0  0  0  0  0  0  0  0
   10.7489   -4.4597   21.0314 N   0  0  0  0  0  0  0  0  0  0  0  0
    9.4834   -7.0076   17.9547 C   0  0  0  0  0  0  0  0  0  0  0  0
   13.3100   -5.9789   18.7334 C   0  0  0  0  0  0  0  0  0  0  0  0
    5.8045   -9.0416   16.3468 O   0  0  0  0  0  0  0  0  0  0  0  0
    3.6707   -7.8165   15.6145 C   0  0  0  0  0  0  0  0  0  0  0  0
    0.3380  -11.9816   20.0676 C   0  0  0  0  0  0  0  0  0  0  0  0
   10.3003   -4.8358   17.7615 C   0  0  0  0  0  0  0  0  0  0  0  0
   10.7911   -4.8850   19.3502 N   0  0  0  0  0  0  0  0  0  0  0  0
    1.0748  -10.8653   18.2166 C   0  0  0  0  0  0  0  0  0  0  0  0
    2.0944  -11.5756   19.2519 C   0  0  0  0  0  0  0  0  0  0  0  0
   13.8104   -5.3147   22.8709 N   0  0  0  0  0  0  0  0  0  0  0  0
   11.5856   -5.2916   18.7398 C   0  0  0  0  0  0  0  0  0  0  0  0
    8.3099   -7.1985   16.6514 C   0  0  0  0  0  0  0  0  0  0  0  0
   12.5626   -4.8502   22.9923 C   0  0  0  0  0  0  0  0  0  0  0  0
    2.5427   -8.7564   15.8673 C   0  0  0  0  0  0  0  0  0  0  0  0
    4.3859   -7.7655   15.6509 C   0  0  0  0  0  0  0  0  0  0  0  0
    8.5639   -6.2939   17.4846 C   0  0  0  0  0  0  0  0  0  0  0  0
    0.3789  -12.1600   20.3371 C   0  0  0  0  0  0  0  0  0  0  0  0
   -0.4892  -11.3413   18.9109 C   0  0  0  0  0  0  0  0  0  0  0  0
    9.1376   -5.1461   16.9134 C   0  0  0  0  0  0  0  0  0  0  0  0
    0.3228  -10.8050   18.0311 C   0  0  0  0  0  0  0  0  0  0  0  0
   11.0398   -5.1710   19.8969 C   0  0  0  0  0  0  0  0  0  0  0  0
  1  8  4  0
  1  9  4  0
  2  4  4  0
  2 11  4  0
  2 22  4  0
  3 10  1  0
  3 25  4  0
  4 11  4  0
  5 11  4  0
  6  8  4  0
  6 26  4  0
  7 10  1  0
  9 15  4  0
 12 27  4  0
 13 34  4  0
 14 29  4  0
 17 28  1  0
 18 30  4  0
 18 31  4  0
 19 32  4  0
 20 24  4  0
 21 22  4  0
 21 33  4  0
 23 26  4  0
 25 29  1  0
 29 32  4  0
 31 33  4  0
M  END
$$$$

 Created by Python create_sdf_string function

 34 75  0  0  0  0  0  0  0  0999 V2000
   14.0804   -5.3987   21.3762 Cl  0  0  0  0  0  0  0  0  0  0  0  0
    3.5055  -10.5992   18.7809 Cl  0  0  0  0  0  0  0  0  0  0  0  0
    7.7146   -6.8931   15.0241 S   0  0  0  0  0  0  0  0  0  0  0  0
    2.7436  -10.1452   17.8228 C   0  0  0  0  0  0  0  0  0  0  0  0
    5.1326   -8.7511   16.5025 C   0  0  0  0  0  0  0  0  0  0  0  0
   13.5927   -5.7549   20.9019 Se  0  0  0  0  0  0  0  0  0  0  0  0
   12.7857   -5.1739   21.1319 C   0  0  0  0  0  0  0  0  0  0  0  0
    2.1867  -10.1312   17.0022 F   0  0  0  0  0  0  0  0  0  0  0  0
    8.6601   -6.9308   18.7720 O   0  0  0  0  0  0  0  0  0  0  0  0
    6.9066   -9.0367   16.5612 O   0  0  0  0  0  0  0  0  0  0  0  0
    3.3118   -8.7721   16.7759 N   0  0  0  0  0  0  0  0  0  0  0  0
    0.7709  -10.6512   18.6386 C   0  0  0  0  0  0  0  0  0  0  0  0
   10.6832   -5.8697   19.0982 C   0  0  0  0  0  0  0  0  0  0  0  0
   11.0989   -5.2364   19.1505 B   0  0  0  0  0  0  0  0  0  0  0  0
    1.1836  -10.7549   17.3224 N   0  0  0  0  0  0  0  0  0  0  0  0
    1.9838  -11.0685   19.4246 C   0  0  0  0  0  0  0  0  0  0  0  0
   10.2346   -5.8582   19.2342 C   0  0  0  0  0  0  0  0  0  0  0  0
   13.2938   -5.3199   22.7471 C   0  0  0  0  0  0  0  0  0  0  0  0
    1.9497   -9.3881   15.7795 C   0  0  0  0  0  0  0  0  0  0  0  0
    4.7111   -7.8613   16.2129 O   0  0  0  0  0  0  0  0  0  0  0  0
    8.8743   -5.8347   17.6636 C   0  0  0  0  0  0  0  0  0  0  0  0
    0.9459  -12.7897   20.2268 C   0  0  0  0  0  0  0  0  0  0  0  0
   11.1960   -4.2190   23.1097 He  0  0  0  0  0  0  0  0  0  0  0  0
    5.4459   -7.1684   16.5020 He  0  0  0  0  0  0  0  0  0  0  0  0
    6.1105   -6.7779   16.9430 He  0  0  0  0  0  0  0  0  0  0  0  0
    4.5957   -9.9951   17.9764 He  0  0  0  0  0  0  0  0  0  0  0  0
    9.7289   -5.1852   19.7116 He  0  0  0  0  0  0  0  0  0  0  0  0
   13.2760   -6.0162   18.6918 He  0  0  0  0  0  0  0  0  0  0  0  0
   13.4960   -5.0167   22.3573 He  0  0  0  0  0  0  0  0  0  0  0  0
    8.0367   -8.3298   16.5128 He  0  0  0  0  0  0  0  0  0  0  0  0
   -1.2512  -11.4130   19.9686 He  0  0  0  0  0  0  0  0  0  0  0  0
    9.3515   -4.7705   16.2238 He  0  0  0  0  0  0  0  0  0  0  0  0
   -0.8653  -11.2136   19.0389 He  0  0  0  0  0  0  0  0  0  0  0  0
   11.4916   -5.4111   19.7576 He  0  0  0  0  0  0  0  0  0  0  0  0
  1  2  1  0
  1  3  3  0
  1  4  1  0
  1  5  4  0
  1  6  2  0
  1 10  4  0
  1 12  2  0
  1 20  2  0
  2  6  3  0
  2  7  4  0
  2  9  2  0
  2 10  4  0
  2 11  2  0
  2 16  4  0
  2 18  3  0
  3  4  3  0
  3  5  3  0
  3  6  4  0
  3  7  1  0
  3 17  1  0
  3 18  3  0
  3 22  4  0
  4  6  1  0
  4  8  1  0
  4  9  1  0
  4 11  2  0
  4 12  1  0
  4 15  4  0
  4 18  2  0
  5  8  4  0
  5 10  1  0
  5 12  1  0
  5 13  2  0
  5 14  4  0
  5 15  1  0
  5 21  4  0
  6  9  1  0
  6 10  2  0
  6 14  3  0
  6 15  2  0
  6 16  4  0
  6 18  3  0
  6 22  4  0
  7  9  1  0
  7 10  3  0
  7 12  1  0
  7 17  2  0
  7 18  2  0
  7 20  1  0
  7 22  1  0
  8 12  4  0
  8 14  2  0
  8 21  1  0
  9 14  2  0
  9 16  2  0
  9 18  3  0
 10 18  2  0
 11 12  2  0
 11 16  1  0
 11 19  4  0
 11 20  1  0
 11 21  1  0
 12 13  2  0
 12 18  2  0
 13 16  4  0
 13 20  2  0
 13 22  1  0
 14 19  4  0
 15 17  3  0
 15 20  2  0
 16 19  4  0
 16 20  2  0
 16 21  2  0
 16 22  1  0
 17 20  3  0
M  END
$$$$

 Created by Python create_sdf_string function

 34 32  0  0  0  0  0  0  0  0999 V2000
   13.7282   -5.3058   21.4697 C   0  0  0  0  0  0  0  0  0  0  0  0
    3.1920  -11.2331   18.9803 N   0  0  0  0  0  0  0  0  0  0  0  0
    7.8119   -7.0749   15.5341 C   0  0  0  0  0  0  0  0  0  0  0  0
    2.8088  -10.3643   17.9769 C   0  0  0  0  0  0  0  0  0  0  0  0
    4.8594   -9.1684   17.0103 C   0  0  0  0  0  0  0  0  0  0  0  0
   11.4260   -4.5434   22.5200 C   0  0  0  0  0  0  0  0  0  0  0  0
    5.9989   -7.5883   16.4651 C   0  0  0  0  0  0  0  0  0  0  0  0
   13.0431   -5.3015   20.8031 C   0  0  0  0  0  0  0  0  0  0  0  0
   12.6760   -5.2780   20.7629 C   0  0  0  0  0  0  0  0  0  0  0  0
    6.4902   -6.9962   16.7250 C   0  0  0  0  0  0  0  0  0  0  0  0
    4.2591  -10.1178   17.8907 N   0  0  0  0  0  0  0  0  0  0  0  0
    1.9570  -10.0113   17.4345 C   0  0  0  0  0  0  0  0  0  0  0  0
    9.9466   -4.8152   19.7111 C   0  0  0  0  0  0  0  0  0  0  0  0
    8.6824   -7.2295   17.9492 O   0  0  0  0  0  0  0  0  0  0  0  0
   13.1418   -5.8940   18.7817 C   0  0  0  0  0  0  0  0  0  0  0  0
    6.4444   -8.9061   16.7666 O   0  0  0  0  0  0  0  0  0  0  0  0
    3.3626   -8.6865   16.3415 N   0  0  0  0  0  0  0  0  0  0  0  0
    0.8866  -11.0803   18.7614 C   0  0  0  0  0  0  0  0  0  0  0  0
   10.7921   -5.6037   18.3617 C   0  0  0  0  0  0  0  0  0  0  0  0
   11.2876   -5.5597   18.6278 C   0  0  0  0  0  0  0  0  0  0  0  0
    0.5489  -10.3774   17.5895 N   0  0  0  0  0  0  0  0  0  0  0  0
    1.7425  -11.5973   19.4654 C   0  0  0  0  0  0  0  0  0  0  0  0
   13.5738   -4.9890   22.6356 C   0  0  0  0  0  0  0  0  0  0  0  0
   10.3937   -5.4576   18.9161 C   0  0  0  0  0  0  0  0  0  0  0  0
    8.2576   -7.3603   16.6992 C   0  0  0  0  0  0  0  0  0  0  0  0
   12.6453   -4.7299   23.0297 C   0  0  0  0  0  0  0  0  0  0  0  0
    2.2607   -9.1371   16.3393 C   0  0  0  0  0  0  0  0  0  0  0  0
    4.4359   -7.7031   16.1861 C   0  0  0  0  0  0  0  0  0  0  0  0
    9.0262   -6.2271   17.3275 C   0  0  0  0  0  0  0  0  0  0  0  0
    0.9513  -12.1769   20.4947 C   0  0  0  0  0  0  0  0  0  0  0  0
   -0.6648  -11.5635   19.5772 C   0  0  0  0  0  0  0  0  0  0  0  0
    9.2410   -5.2284   16.6044 O   0  0  0  0  0  0  0  0  0  0  0  0
   -0.6908  -11.1579   18.9325 C   0  0  0  0  0  0  0  0  0  0  0  0
   11.7099   -4.9877   20.5693 C   0  0  0  0  0  0  0  0  0  0  0  0
  1  8  4  0
  1 23  4  0
  2  4  4  0
  2 22  4  0
  3 25  1  0
  4 11  4  0
  4 12  4  0
  5 11  4  0
  5 16  1  0
  6 26  4  0
  7 10  1  0
  7 16  1  0
  8 34  4  0
  9 15  4  0
 12 18  4  0
 12 27  4  0
 13 24  4  0
 13 34  4  0
 14 25  4  0
 14 29  4  0
 17 27  4  0
 17 28  1  0
 18 22  4  0
 19 20  4  0
 19 24  4  0
 20 24  4  0
 21 33  4  0
 22 30  4  0
 23 26  4  0
 25 29  1  0
 29 32  4  0
 31 33  4  0
M  END
$$$$

 Created by Python create_sdf_string function

 34 73  0  0  0  0  0  0  0  0999 V2000
   14.3788   -5.2599   21.7831 C   0  0  0  0  0  0  0  0  0  0  0  0
    3.4773  -10.8957   19.2504 Se  0  0  0  0  0  0  0  0  0  0  0  0
    9.0262   -8.3092   17.2569 C   0  0  0  0  0  0  0  0  0  0  0  0
    3.1766  -10.6275   18.1873 C   0  0  0  0  0  0  0  0  0  0  0  0
    4.2400   -8.7982   16.8343 C   0  0  0  0  0  0  0  0  0  0  0  0
   11.2180   -5.1720   21.3002 C   0  0  0  0  0  0  0  0  0  0  0  0
    5.2051   -7.2873   16.8605 C   0  0  0  0  0  0  0  0  0  0  0  0
   13.8404   -6.7943   21.2220 O   0  0  0  0  0  0  0  0  0  0  0  0
    6.2506   -7.4537   16.8287 C   0  0  0  0  0  0  0  0  0  0  0  0
    1.9732  -10.0150   17.1263 C   0  0  0  0  0  0  0  0  0  0  0  0
    8.2413   -7.4895   18.8758 O   0  0  0  0  0  0  0  0  0  0  0  0
   13.7164   -6.0207   19.1043 O   0  0  0  0  0  0  0  0  0  0  0  0
    0.0930   -9.9567   19.6855 C   0  0  0  0  0  0  0  0  0  0  0  0
    9.9651   -6.3328   18.1198 F   0  0  0  0  0  0  0  0  0  0  0  0
   11.8820   -4.4544   17.6262 C   0  0  0  0  0  0  0  0  0  0  0  0
    1.6410  -11.7316   20.6289 C   0  0  0  0  0  0  0  0  0  0  0  0
    9.1615   -7.2364   15.6836 C   0  0  0  0  0  0  0  0  0  0  0  0
   12.5985   -4.6359   23.9358 C   0  0  0  0  0  0  0  0  0  0  0  0
    1.7073   -9.7416   16.4227 Cl  0  0  0  0  0  0  0  0  0  0  0  0
    4.3066   -7.5638   16.6096 C   0  0  0  0  0  0  0  0  0  0  0  0
    8.7562   -6.0505   16.7278 C   0  0  0  0  0  0  0  0  0  0  0  0
    2.2110  -11.9575   21.1715 C   0  0  0  0  0  0  0  0  0  0  0  0
    0.2467  -11.2431   18.8092 S   0  0  0  0  0  0  0  0  0  0  0  0
   -0.4736  -10.4260   19.7161 F   0  0  0  0  0  0  0  0  0  0  0  0
   12.8025   -5.5369   21.0698 He  0  0  0  0  0  0  0  0  0  0  0  0
    4.1035   -9.3786   18.7650 He  0  0  0  0  0  0  0  0  0  0  0  0
   10.1229   -5.8063   20.1254 He  0  0  0  0  0  0  0  0  0  0  0  0
    5.9646   -9.0649   17.7447 He  0  0  0  0  0  0  0  0  0  0  0  0
    2.8012   -9.2609   16.1414 He  0  0  0  0  0  0  0  0  0  0  0  0
    1.8434  -10.8027   17.9136 He  0  0  0  0  0  0  0  0  0  0  0  0
   13.5006   -5.1384   22.4685 He  0  0  0  0  0  0  0  0  0  0  0  0
    9.6930   -6.2106   18.8329 He  0  0  0  0  0  0  0  0  0  0  0  0
    9.7658   -4.7532   16.6137 He  0  0  0  0  0  0  0  0  0  0  0  0
   10.9715   -5.6162   19.6467 He  0  0  0  0  0  0  0  0  0  0  0  0
  1  3  2  0
  1  8  4  0
  1 11  4  0
  1 19  1  0
  1 20  3  0
  1 22  4  0
  1 23  4  0
  2 10  1  0
  2 16  4  0
  2 18  1  0
  3  4  4  0
  3  5  3  0
  3 12  2  0
  3 16  3  0
  3 17  1  0
  3 21  4  0
  4 10  4  0
  4 14  4  0
  4 19  1  0
  4 22  3  0
  5  7  1  0
  5 10  4  0
  5 13  1  0
  5 14  4  0
  5 16  3  0
  5 17  2  0
  5 22  2  0
  5 24  3  0
  6 15  2  0
  6 18  2  0
  6 23  2  0
  7  9  3  0
  7 10  3  0
  7 12  3  0
  7 14  2  0
  7 16  4  0
  7 17  1  0
  8 15  1  0
  8 18  2  0
  8 23  4  0
  9 18  3  0
  9 19  4  0
  9 21  2  0
  9 24  2  0
 10 13  4  0
 10 14  1  0
 10 15  2  0
 10 16  1  0
 10 22  4  0
 10 24  4  0
 11 18  3  0
 11 23  2  0
 12 15  4  0
 12 16  2  0
 12 21  4  0
 12 23  2  0
 13 21  3  0
 13 23  1  0
 14 15  4  0
 14 18  4  0
 14 20  3  0
 14 21  2  0
 14 24  4  0
 16 17  4  0
 16 20  3  0
 17 18  2  0
 17 20  3  0
 17 22  2  0
 18 22  4  0
 19 24  3  0
 20 21  2  0
 22 23  1  0
 23 24  1  0
M  END
$$$$

 Created by Python create_sdf_string function

 34 28  0  0  0  0  0  0  0  0999 V2000
   13.9958   -5.4256   22.2134 C   0  0  0  0  0  0  0  0  0  0  0  0
    3.0381  -11.3159   19.4273 N   0  0  0  0  0  0  0  0  0  0  0  0
    8.5553   -8.0516   16.8101 C   0  0  0  0  0  0  0  0  0  0  0  0
    3.0158  -10.4580   18.2514 C   0  0  0  0  0  0  0  0  0  0  0  0
    4.1371   -8.8210   16.8897 C   0  0  0  0  0  0  0  0  0  0  0  0
   11.5628   -4.8303   21.9507 C   0  0  0  0  0  0  0  0  0  0  0  0
    5.7304   -8.0157   16.8221 C   0  0  0  0  0  0  0  0  0  0  0  0
   13.5407   -5.5563   21.0763 C   0  0  0  0  0  0  0  0  0  0  0  0
   12.5343   -5.2342   21.0385 C   0  0  0  0  0  0  0  0  0  0  0  0
    6.4799   -7.3329   16.4685 C   0  0  0  0  0  0  0  0  0  0  0  0
    4.5881   -9.7923   18.0226 N   0  0  0  0  0  0  0  0  0  0  0  0
    2.1570   -9.8977   17.3802 C   0  0  0  0  0  0  0  0  0  0  0  0
   10.3910   -5.6647   19.7838 C   0  0  0  0  0  0  0  0  0  0  0  0
    8.2757   -7.6229   18.2944 O   0  0  0  0  0  0  0  0  0  0  0  0
   12.6365   -5.6516   18.8038 O   0  0  0  0  0  0  0  0  0  0  0  0
    6.1640   -8.6424   18.0172 C   0  0  0  0  0  0  0  0  0  0  0  0
    2.7773   -8.9079   16.1993 C   0  0  0  0  0  0  0  0  0  0  0  0
    0.6187  -10.9748   18.8268 C   0  0  0  0  0  0  0  0  0  0  0  0
   10.4489   -5.6204   18.1832 C   0  0  0  0  0  0  0  0  0  0  0  0
   11.7042   -5.1552   17.7283 C   0  0  0  0  0  0  0  0  0  0  0  0
    1.3683  -10.5220   18.1968 C   0  0  0  0  0  0  0  0  0  0  0  0
    1.9609  -11.7839   20.0964 C   0  0  0  0  0  0  0  0  0  0  0  0
   13.4746   -4.9319   23.1048 C   0  0  0  0  0  0  0  0  0  0  0  0
    9.6732   -6.2880   18.4039 C   0  0  0  0  0  0  0  0  0  0  0  0
    8.3572   -7.0500   16.4001 C   0  0  0  0  0  0  0  0  0  0  0  0
   12.3064   -4.6309   23.2460 C   0  0  0  0  0  0  0  0  0  0  0  0
    1.6128   -9.3850   16.4003 C   0  0  0  0  0  0  0  0  0  0  0  0
    4.7914   -7.7933   16.5190 C   0  0  0  0  0  0  0  0  0  0  0  0
    8.8199   -5.9022   16.6144 C   0  0  0  0  0  0  0  0  0  0  0  0
    1.4603  -12.1419   20.9794 C   0  0  0  0  0  0  0  0  0  0  0  0
   -0.0532  -11.2811   19.5911 C   0  0  0  0  0  0  0  0  0  0  0  0
    9.8146   -4.7532   16.5923 C   0  0  0  0  0  0  0  0  0  0  0  0
   -0.9222  -11.1226   19.6884 C   0  0  0  0  0  0  0  0  0  0  0  0
   11.0869   -5.4545   19.5394 C   0  0  0  0  0  0  0  0  0  0  0  0
  1  8  4  0
  1 23  4  0
  2  4  4  0
  2 22  4  0
  3 25  1  0
  4 11  4  0
  4 12  4  0
  5 11  4  0
  5 17  4  0
  6  9  4  0
  6 26  4  0
  7 10  1  0
  8  9  4  0
 10 25  1  0
 13 24  4  0
 13 34  4  0
 15 20  4  0
 17 27  4  0
 18 21  4  0
 18 31  1  0
 19 20  4  0
 19 24  4  0
 19 34  1  0
 22 30  1  0
 23 26  4  0
 25 29  1  0
 29 32  4  0
 31 33  1  0
M  END
$$$$

 Created by Python create_sdf_string function

 34 97  0  0  0  0  0  0  0  0999 V2000
   14.5033   -5.5522   22.0748 C   0  0  0  0  0  0  0  0  0  0  0  0
    4.0060  -11.0059   18.4492 N   0  0  0  0  0  0  0  0  0  0  0  0
    3.6381  -10.4216   17.9440 C   0  0  0  0  0  0  0  0  0  0  0  0
   11.3895   -4.5802   22.6698 F   0  0  0  0  0  0  0  0  0  0  0  0
    5.8700   -8.0906   16.7285 C   0  0  0  0  0  0  0  0  0  0  0  0
    3.6339   -9.5292   17.1804 N   0  0  0  0  0  0  0  0  0  0  0  0
    3.4821   -9.7420   17.3833 B   0  0  0  0  0  0  0  0  0  0  0  0
   10.3429   -6.5554   18.7904 S   0  0  0  0  0  0  0  0  0  0  0  0
    8.6869   -6.9018   18.1928 Cl  0  0  0  0  0  0  0  0  0  0  0  0
   12.6577   -5.0364   18.3292 Cl  0  0  0  0  0  0  0  0  0  0  0  0
    7.1863   -7.8355   17.7519 O   0  0  0  0  0  0  0  0  0  0  0  0
    1.7640   -8.1733   15.4675 C   0  0  0  0  0  0  0  0  0  0  0  0
    0.5291  -10.9061   18.8955 C   0  0  0  0  0  0  0  0  0  0  0  0
   11.5686   -5.6866   18.2179 F   0  0  0  0  0  0  0  0  0  0  0  0
   12.1172   -5.5288   17.6725 C   0  0  0  0  0  0  0  0  0  0  0  0
    0.4937  -10.1242   19.2377 C   0  0  0  0  0  0  0  0  0  0  0  0
    2.3303  -11.3379   20.3666 C   0  0  0  0  0  0  0  0  0  0  0  0
   13.1669   -5.5779   22.2991 F   0  0  0  0  0  0  0  0  0  0  0  0
    9.3371   -5.9677   18.3759 C   0  0  0  0  0  0  0  0  0  0  0  0
    9.5095   -7.5995   16.1990 C   0  0  0  0  0  0  0  0  0  0  0  0
    1.4380  -10.2166   15.9346 O   0  0  0  0  0  0  0  0  0  0  0  0
    8.4707   -6.1649   16.5362 C   0  0  0  0  0  0  0  0  0  0  0  0
    1.8367  -11.9472   20.5763 C   0  0  0  0  0  0  0  0  0  0  0  0
   -0.2940  -11.7975   19.8188 C   0  0  0  0  0  0  0  0  0  0  0  0
    9.8784   -5.5909   16.4245 C   0  0  0  0  0  0  0  0  0  0  0  0
   -0.5846  -10.7975   19.5464 O   0  0  0  0  0  0  0  0  0  0  0  0
   11.8966   -6.0919   18.6995 C   0  0  0  0  0  0  0  0  0  0  0  0
    8.2792   -7.1798   17.4368 He  0  0  0  0  0  0  0  0  0  0  0  0
    3.8436   -9.7130   17.6416 He  0  0  0  0  0  0  0  0  0  0  0  0
   13.3909   -5.0178   20.0917 He  0  0  0  0  0  0  0  0  0  0  0  0
   12.1660   -4.5860   20.5609 He  0  0  0  0  0  0  0  0  0  0  0  0
    7.6440   -8.1557   17.2319 He  0  0  0  0  0  0  0  0  0  0  0  0
   12.4801   -5.3085   23.2875 He  0  0  0  0  0  0  0  0  0  0  0  0
    4.5926   -7.7582   17.0692 He  0  0  0  0  0  0  0  0  0  0  0  0
  1  6  2  0
  1  9  2  0
  1 10  3  0
  1 11  1  0
  1 15  2  0
  1 16  1  0
  1 18  4  0
  1 20  3  0
  1 26  2  0
  2  3  2  0
  2  4  4  0
  2  6  2  0
  2  7  2  0
  2 10  2  0
  2 11  2  0
  2 14  2  0
  2 17  4  0
  2 21  2  0
  2 22  3  0
  3  6  1  0
  3 13  3  0
  3 15  4  0
  3 25  2  0
  4  5  3  0
  4  9  4  0
  4 11  3  0
  4 12  1  0
  4 15  4  0
  4 17  4  0
  4 24  2  0
  4 25  2  0
  5  6  2  0
  5 10  4  0
  5 17  3  0
  5 24  4  0
  6  7  2  0
  6  9  1  0
  6 13  1  0
  6 17  3  0
  6 20  3  0
  6 22  4  0
  6 23  1  0
  6 25  3  0
  6 26  1  0
  7  8  1  0
  7 17  3  0
  7 24  2  0
  7 26  4  0
  8 16  1  0
  8 19  4  0
  8 26  2  0
  8 27  4  0
  9 10  4  0
 10 15  4  0
 10 19  3  0
 10 20  4  0
 11 16  4  0
 11 20  2  0
 11 23  2  0
 11 24  2  0
 11 25  3  0
 11 27  4  0
 12 17  3  0
 12 18  2  0
 13 18  4  0
 13 21  3  0
 13 24  2  0
 13 26  1  0
 14 16  4  0
 14 22  2  0
 14 23  2  0
 14 25  2  0
 14 26  4  0
 15 20  2  0
 15 21  3  0
 15 23  4  0
 16 19  1  0
 16 26  2  0
 17 18  4  0
 17 25  2  0
 17 27  2  0
 18 21  3  0
 18 25  4  0
 18 26  4  0
 19 22  3  0
 19 24  3  0
 19 25  2  0
 19 27  1  0
 20 24  4  0
 20 25  2  0
 21 22  2  0
 21 23  1  0
 22 24  2  0
 24 26  1  0
 24 27  2  0
 25 26  2  0
 26 27  4  0
M  END
$$$$

 Created by Python create_sdf_string function

 34 26  0  0  0  0  0  0  0  0999 V2000
   13.6743   -5.3480   21.6458 C   0  0  0  0  0  0  0  0  0  0  0  0
    3.6006  -11.1528   18.9642 N   0  0  0  0  0  0  0  0  0  0  0  0
    8.1069   -7.3088   16.6086 C   0  0  0  0  0  0  0  0  0  0  0  0
    3.1429  -10.4940   18.1660 C   0  0  0  0  0  0  0  0  0  0  0  0
    4.5596   -9.2604   17.3950 C   0  0  0  0  0  0  0  0  0  0  0  0
   11.4057   -4.5963   22.3530 C   0  0  0  0  0  0  0  0  0  0  0  0
    5.3152   -8.0902   16.6923 C   0  0  0  0  0  0  0  0  0  0  0  0
   12.8237   -5.0953   20.6896 C   0  0  0  0  0  0  0  0  0  0  0  0
   11.8304   -4.6843   21.0534 C   0  0  0  0  0  0  0  0  0  0  0  0
    6.9515   -8.3812   17.2355 C   0  0  0  0  0  0  0  0  0  0  0  0
    3.5680   -9.5839   17.3693 N   0  0  0  0  0  0  0  0  0  0  0  0
    2.7077   -9.6639   17.2672 C   0  0  0  0  0  0  0  0  0  0  0  0
   10.3232   -6.3897   18.9438 C   0  0  0  0  0  0  0  0  0  0  0  0
    8.3069   -6.9391   17.9947 C   0  0  0  0  0  0  0  0  0  0  0  0
   12.6200   -5.0311   18.5610 C   0  0  0  0  0  0  0  0  0  0  0  0
    6.6651   -8.0348   17.7687 C   0  0  0  0  0  0  0  0  0  0  0  0
    1.9719   -8.8609   15.8454 C   0  0  0  0  0  0  0  0  0  0  0  0
    0.5404  -10.8710   18.5717 C   0  0  0  0  0  0  0  0  0  0  0  0
   11.4142   -5.1578   18.4987 C   0  0  0  0  0  0  0  0  0  0  0  0
   11.8069   -4.8483   17.5630 C   0  0  0  0  0  0  0  0  0  0  0  0
    1.0266  -10.8841   18.5947 C   0  0  0  0  0  0  0  0  0  0  0  0
    2.3964  -11.8829   19.8594 C   0  0  0  0  0  0  0  0  0  0  0  0
   13.5033   -5.2258   22.7341 C   0  0  0  0  0  0  0  0  0  0  0  0
    9.6308   -6.2370   17.9796 C   0  0  0  0  0  0  0  0  0  0  0  0
    8.6693   -7.6515   16.0118 C   0  0  0  0  0  0  0  0  0  0  0  0
   12.2449   -4.9015   23.0943 C   0  0  0  0  0  0  0  0  0  0  0  0
    1.2135   -9.5707   16.4567 C   0  0  0  0  0  0  0  0  0  0  0  0
    4.8618   -7.9035   16.8172 C   0  0  0  0  0  0  0  0  0  0  0  0
    8.1892   -6.2400   16.4698 C   0  0  0  0  0  0  0  0  0  0  0  0
    1.4590  -12.0111   20.4696 C   0  0  0  0  0  0  0  0  0  0  0  0
   -0.1988  -11.7751   20.2917 C   0  0  0  0  0  0  0  0  0  0  0  0
   10.0107   -5.1421   16.9037 C   0  0  0  0  0  0  0  0  0  0  0  0
   -0.6163  -11.1307   19.4905 C   0  0  0  0  0  0  0  0  0  0  0  0
   11.2940   -5.6200   19.1373 C   0  0  0  0  0  0  0  0  0  0  0  0
  1  8  4  0
  1 23  4  0
  2  4  4  0
  2 22  4  0
  3 25  1  0
  4 11  1  0
  5 11  4  0
  6  9  4  0
  6 26  4  0
  7 28  4  0
  8  9  4  0
 10 16  1  0
 13 24  4  0
 13 34  4  0
 14 24  1  0
 15 20  4  0
 17 27  1  0
 18 21  4  0
 19 20  4  0
 19 34  4  0
 20 32  4  0
 22 30  4  0
 23 26  4  0
 24 32  4  0
 30 31  4  0
 31 33  1  0
M  END
$$$$

 Created by Python create_sdf_string function

 34 88  0  0  0  0  0  0  0  0999 V2000
   14.3816   -4.7867   20.0151 C   0  0  0  0  0  0  0  0  0  0  0  0
    4.3572  -11.2030   18.1917 N   0  0  0  0  0  0  0  0  0  0  0  0
    8.0907   -7.1438   16.3517 C   0  0  0  0  0  0  0  0  0  0  0  0
    3.0276  -10.1440   18.1313 O   0  0  0  0  0  0  0  0  0  0  0  0
    4.6140   -9.5804   18.6185 Cl  0  0  0  0  0  0  0  0  0  0  0  0
   11.2570   -5.1283   22.2247 C   0  0  0  0  0  0  0  0  0  0  0  0
    4.7870   -7.8368   17.2340 C   0  0  0  0  0  0  0  0  0  0  0  0
   10.6738   -3.9176   21.3549 C   0  0  0  0  0  0  0  0  0  0  0  0
    7.4663   -7.6968   16.7168 C   0  0  0  0  0  0  0  0  0  0  0  0
    3.4637  -10.1383   17.0234 N   0  0  0  0  0  0  0  0  0  0  0  0
   10.5881   -5.8004   19.1125 C   0  0  0  0  0  0  0  0  0  0  0  0
    7.5408   -6.7179   18.1380 O   0  0  0  0  0  0  0  0  0  0  0  0
   12.8806   -4.2673   19.2578 Cl  0  0  0  0  0  0  0  0  0  0  0  0
    2.7686   -8.5325   15.7875 C   0  0  0  0  0  0  0  0  0  0  0  0
   10.9416   -4.6555   16.9834 S   0  0  0  0  0  0  0  0  0  0  0  0
    1.0737  -11.3116   17.8512 C   0  0  0  0  0  0  0  0  0  0  0  0
   12.9365   -5.1417   23.4429 P   0  0  0  0  0  0  0  0  0  0  0  0
    7.8029   -6.2079   17.3802 C   0  0  0  0  0  0  0  0  0  0  0  0
    8.7291   -6.9668   16.3152 Br  0  0  0  0  0  0  0  0  0  0  0  0
   12.0450   -5.8443   22.5891 C   0  0  0  0  0  0  0  0  0  0  0  0
    0.6572   -9.2012   16.1363 C   0  0  0  0  0  0  0  0  0  0  0  0
    4.8754   -8.3619   16.5064 P   0  0  0  0  0  0  0  0  0  0  0  0
    7.8545   -6.5958   16.1063 C   0  0  0  0  0  0  0  0  0  0  0  0
    1.1409  -11.9523   20.8826 F   0  0  0  0  0  0  0  0  0  0  0  0
   -0.4386  -12.7874   19.4563 C   0  0  0  0  0  0  0  0  0  0  0  0
   12.5266   -4.8277   19.2110 C   0  0  0  0  0  0  0  0  0  0  0  0
   13.5640   -5.0015   20.8074 He  0  0  0  0  0  0  0  0  0  0  0  0
    2.4870   -8.9282   18.2893 He  0  0  0  0  0  0  0  0  0  0  0  0
    7.6373   -8.3276   18.4500 He  0  0  0  0  0  0  0  0  0  0  0  0
    0.1123  -10.6749   18.4705 He  0  0  0  0  0  0  0  0  0  0  0  0
   11.3525   -6.2133   19.3437 He  0  0  0  0  0  0  0  0  0  0  0  0
    1.3394  -13.3059   21.3971 He  0  0  0  0  0  0  0  0  0  0  0  0
    9.4192   -4.9123   17.6861 He  0  0  0  0  0  0  0  0  0  0  0  0
   -0.9326  -11.0099   20.0516 He  0  0  0  0  0  0  0  0  0  0  0  0
  1  3  2  0
  1  4  1  0
  1  5  4  0
  1 11  4  0
  1 12  1  0
  1 15  2  0
  1 17  4  0
  1 18  1  0
  1 21  1  0
  1 23  1  0
  1 25  1  0
  2  4  3  0
  2 17  2  0
  2 18  3  0
  2 23  3  0
  2 25  3  0
  2 26  3  0
  3  4  2  0
  3  6  1  0
  3 12  1  0
  3 14  3  0
  3 24  4  0
  3 26  1  0
  4  5  4  0
  4 10  1  0
  4 11  4  0
  4 15  1  0
  5  6  4  0
  5  7  1  0
  5 10  4  0
  5 12  3  0
  5 18  3  0
  5 20  4  0
  5 22  3  0
  6  8  3  0
  6 10  3  0
  6 15  3  0
  6 19  3  0
  6 20  3  0
  7  8  4  0
  7 17  2  0
  7 23  3  0
  8  9  1  0
  8 16  4  0
  8 17  2  0
  9 10  3  0
  9 13  3  0
  9 15  1  0
  9 23  4  0
  9 24  2  0
 10 12  1  0
 10 14  3  0
 10 16  4  0
 10 20  1  0
 10 22  1  0
 10 23  1  0
 10 24  1  0
 11 13  4  0
 11 14  4  0
 11 15  1  0
 11 16  4  0
 11 19  3  0
 11 21  2  0
 11 22  4  0
 11 23  1  0
 11 25  3  0
 11 26  4  0
 12 18  3  0
 12 20  4  0
 12 22  3  0
 13 15  4  0
 13 16  1  0
 14 22  1  0
 14 26  1  0
 15 24  2  0
 15 26  3  0
 16 23  4  0
 16 25  3  0
 16 26  4  0
 17 19  2  0
 17 21  1  0
 17 24  4  0
 18 21  3  0
 19 25  3  0
 20 26  3  0
 23 24  1  0
 24 25  4  0
 25 26  3  0
M  END
$$$$

 Created by Python create_sdf_string function

 34 31  0  0  0  0  0  0  0  0999 V2000
   13.4939   -5.0922   21.3954 C   0  0  0  0  0  0  0  0  0  0  0  0
    3.6640  -11.1807   19.0002 N   0  0  0  0  0  0  0  0  0  0  0  0
    8.2177   -7.0021   15.9038 C   0  0  0  0  0  0  0  0  0  0  0  0
    3.1912  -10.4987   18.1860 C   0  0  0  0  0  0  0  0  0  0  0  0
    4.9955   -9.5441   18.1177 C   0  0  0  0  0  0  0  0  0  0  0  0
   11.2677   -4.7441   22.5232 C   0  0  0  0  0  0  0  0  0  0  0  0
    5.1611   -8.4323   17.0771 C   0  0  0  0  0  0  0  0  0  0  0  0
   12.5461   -4.9101   20.9047 C   0  0  0  0  0  0  0  0  0  0  0  0
   11.1915   -4.5119   21.4001 C   0  0  0  0  0  0  0  0  0  0  0  0
    6.7196   -7.8059   17.0099 C   0  0  0  0  0  0  0  0  0  0  0  0
    2.9531   -9.9372   17.5098 N   0  0  0  0  0  0  0  0  0  0  0  0
    2.9040  -10.0099   17.6402 C   0  0  0  0  0  0  0  0  0  0  0  0
   11.1987   -5.5170   19.0633 C   0  0  0  0  0  0  0  0  0  0  0  0
    7.5027   -6.7009   17.9879 C   0  0  0  0  0  0  0  0  0  0  0  0
   11.8915   -4.1900   18.4471 N   0  0  0  0  0  0  0  0  0  0  0  0
    7.3293   -8.2439   18.0006 C   0  0  0  0  0  0  0  0  0  0  0  0
    2.7102   -8.6495   16.1255 C   0  0  0  0  0  0  0  0  0  0  0  0
    0.5497  -10.6554   17.9264 C   0  0  0  0  0  0  0  0  0  0  0  0
   10.8097   -6.0318   18.8265 C   0  0  0  0  0  0  0  0  0  0  0  0
   10.9568   -4.5409   17.4973 C   0  0  0  0  0  0  0  0  0  0  0  0
    1.1310  -11.0928   18.5425 C   0  0  0  0  0  0  0  0  0  0  0  0
    1.3694  -12.6055   21.0328 C   0  0  0  0  0  0  0  0  0  0  0  0
   13.3934   -5.2488   23.0115 C   0  0  0  0  0  0  0  0  0  0  0  0
    8.6786   -6.3331   17.7524 C   0  0  0  0  0  0  0  0  0  0  0  0
    8.7715   -6.4829   16.1029 C   0  0  0  0  0  0  0  0  0  0  0  0
   12.2209   -5.1038   23.2311 C   0  0  0  0  0  0  0  0  0  0  0  0
    0.9745   -9.6797   16.6973 C   0  0  0  0  0  0  0  0  0  0  0  0
    4.3921   -8.1925   16.2833 C   0  0  0  0  0  0  0  0  0  0  0  0
    7.5539   -7.1015   15.8451 C   0  0  0  0  0  0  0  0  0  0  0  0
    1.3651  -12.0563   20.2207 C   0  0  0  0  0  0  0  0  0  0  0  0
   -0.0019  -11.9209   19.6680 C   0  0  0  0  0  0  0  0  0  0  0  0
    9.6240   -5.0076   17.2114 C   0  0  0  0  0  0  0  0  0  0  0  0
   -0.7502  -11.6606   19.9041 C   0  0  0  0  0  0  0  0  0  0  0  0
   12.2059   -5.1536   19.4992 C   0  0  0  0  0  0  0  0  0  0  0  0
  1  8  4  0
  1 23  4  0
  2  4  4  0
  3 25  4  0
  3 29  4  0
  4 11  1  0
  4 12  4  0
  5  7  1  0
  6  9  4  0
  6 26  4  0
  7 10  1  0
  7 28  1  0
  8  9  4  0
  8 34  4  0
 10 16  1  0
 10 29  4  0
 11 12  4  0
 13 15  4  0
 13 19  4  0
 13 34  4  0
 14 24  4  0
 15 20  4  0
 17 28  1  0
 18 21  4  0
 18 27  4  0
 20 32  4  0
 22 30  4  0
 23 26  4  0
 24 32  1  0
 30 31  4  0
 31 33  1  0
M  END
$$$$

 Created by Python create_sdf_string function

 34 76  0  0  0  0  0  0  0  0999 V2000
   13.3080   -5.2296   21.4114 C   0  0  0  0  0  0  0  0  0  0  0  0
    3.3212  -11.6089   18.8964 N   0  0  0  0  0  0  0  0  0  0  0  0
    9.0185   -6.3823   16.1271 C   0  0  0  0  0  0  0  0  0  0  0  0
    3.4011  -10.6975   18.7490 C   0  0  0  0  0  0  0  0  0  0  0  0
   11.7755   -4.4943   23.2588 C   0  0  0  0  0  0  0  0  0  0  0  0
    5.4376   -8.1942   17.1207 C   0  0  0  0  0  0  0  0  0  0  0  0
   13.1448   -5.0743   20.7104 N   0  0  0  0  0  0  0  0  0  0  0  0
   11.4473   -4.7692   20.1597 C   0  0  0  0  0  0  0  0  0  0  0  0
    2.6949  -10.0175   17.4273 F   0  0  0  0  0  0  0  0  0  0  0  0
    2.9639   -9.0363   17.2698 C   0  0  0  0  0  0  0  0  0  0  0  0
    7.4844   -6.5789   18.1977 N   0  0  0  0  0  0  0  0  0  0  0  0
   12.5758   -4.2307   18.2841 C   0  0  0  0  0  0  0  0  0  0  0  0
    1.5607   -8.7211   16.9334 C   0  0  0  0  0  0  0  0  0  0  0  0
    0.1492  -10.5322   18.6026 C   0  0  0  0  0  0  0  0  0  0  0  0
   11.7141   -4.9075   16.6105 S   0  0  0  0  0  0  0  0  0  0  0  0
    0.5511  -11.8623   21.0751 Cl  0  0  0  0  0  0  0  0  0  0  0  0
   13.7787   -4.7293   23.4230 C   0  0  0  0  0  0  0  0  0  0  0  0
    9.1180   -4.9006   16.0623 P   0  0  0  0  0  0  0  0  0  0  0  0
    9.3420   -8.1318   16.2784 C   0  0  0  0  0  0  0  0  0  0  0  0
    2.0785   -9.5902   16.3929 C   0  0  0  0  0  0  0  0  0  0  0  0
    4.6315   -8.5461   16.9341 C   0  0  0  0  0  0  0  0  0  0  0  0
    7.4220   -7.3080   15.7624 C   0  0  0  0  0  0  0  0  0  0  0  0
    0.2387  -12.7772   20.5262 C   0  0  0  0  0  0  0  0  0  0  0  0
    0.4062  -12.4220   18.9829 C   0  0  0  0  0  0  0  0  0  0  0  0
   -0.7479  -11.5474   20.0246 C   0  0  0  0  0  0  0  0  0  0  0  0
    4.9910  -10.1698   17.6886 He  0  0  0  0  0  0  0  0  0  0  0  0
    6.9447   -7.5612   17.0039 He  0  0  0  0  0  0  0  0  0  0  0  0
   10.2861   -5.9254   19.4729 He  0  0  0  0  0  0  0  0  0  0  0  0
    7.1171   -7.2537   18.3923 He  0  0  0  0  0  0  0  0  0  0  0  0
   11.6140   -5.8992   18.0504 He  0  0  0  0  0  0  0  0  0  0  0  0
    1.0187  -10.2829   18.7940 He  0  0  0  0  0  0  0  0  0  0  0  0
   11.3465   -4.1081   23.3260 He  0  0  0  0  0  0  0  0  0  0  0  0
    9.1713   -5.7403   16.5052 He  0  0  0  0  0  0  0  0  0  0  0  0
   13.0842   -4.7837   18.8769 He  0  0  0  0  0  0  0  0  0  0  0  0
  1  3  2  0
  1  7  2  0
  1  9  3  0
  1 11  4  0
  1 14  4  0
  1 21  3  0
  1 23  1  0
  2  4  4  0
  2  5  2  0
  2 18  3  0
  2 25  3  0
  3  7  2  0
  3 10  1  0
  3 11  1  0
  3 21  4  0
  3 22  4  0
  3 24  2  0
  4  5  2  0
  4 10  4  0
  4 14  3  0
  4 20  1  0
  4 25  1  0
  5  8  4  0
  5 11  4  0
  5 14  1  0
  5 16  2  0
  5 17  3  0
  5 22  2  0
  5 23  3  0
  5 25  2  0
  6  8  4  0
  6 14  4  0
  6 21  3  0
  6 23  3  0
  6 25  1  0
  7 15  2  0
  7 22  1  0
  7 23  3  0
  7 24  2  0
  8  9  1  0
  8 10  3  0
  8 20  3  0
  9 10  4  0
  9 12  3  0
  9 15  3  0
  9 20  4  0
  9 25  4  0
 10 15  3  0
 10 16  2  0
 10 17  2  0
 10 18  1  0
 11 13  3  0
 11 16  2  0
 11 18  4  0
 11 19  2  0
 11 24  1  0
 13 19  1  0
 13 21  1  0
 14 15  2  0
 14 22  4  0
 14 25  3  0
 15 20  1  0
 15 24  4  0
 16 18  3  0
 16 19  3  0
 18 20  1  0
 18 21  1  0
 18 24  2  0
 18 25  1  0
 19 22  4  0
 19 24  4  0
 20 23  1  0
 21 22  2  0
 22 25  4  0
 23 24  4  0
 23 25  2  0
M  END
$$$$

 Created by Python create_sdf_string function

 34 32  0  0  0  0  0  0  0  0999 V2000
   13.4812   -4.9324   21.7304 C   0  0  0  0  0  0  0  0  0  0  0  0
    3.0872  -11.3354   18.9986 N   0  0  0  0  0  0  0  0  0  0  0  0
    8.6662   -6.5223   16.6490 C   0  0  0  0  0  0  0  0  0  0  0  0
    3.1837  -10.8657   18.5365 C   0  0  0  0  0  0  0  0  0  0  0  0
    5.1302   -9.9211   17.8170 O   0  0  0  0  0  0  0  0  0  0  0  0
   11.1327   -4.5201   22.2515 C   0  0  0  0  0  0  0  0  0  0  0  0
    5.4002   -8.7621   17.0992 C   0  0  0  0  0  0  0  0  0  0  0  0
   12.7953   -4.9191   20.8313 C   0  0  0  0  0  0  0  0  0  0  0  0
   11.4789   -4.9094   20.7463 C   0  0  0  0  0  0  0  0  0  0  0  0
    6.5369   -7.9855   17.0091 C   0  0  0  0  0  0  0  0  0  0  0  0
    2.7514   -9.4184   17.0001 C   0  0  0  0  0  0  0  0  0  0  0  0
    3.1549   -9.8746   17.5163 C   0  0  0  0  0  0  0  0  0  0  0  0
   10.5301   -5.6169   19.0032 C   0  0  0  0  0  0  0  0  0  0  0  0
    7.9091   -6.4094   17.6832 C   0  0  0  0  0  0  0  0  0  0  0  0
   12.3247   -5.0226   18.4595 C   0  0  0  0  0  0  0  0  0  0  0  0
    6.8117   -7.2947   17.8839 C   0  0  0  0  0  0  0  0  0  0  0  0
    0.8709   -9.6267   17.2243 C   0  0  0  0  0  0  0  0  0  0  0  0
    0.0030  -10.5359   18.5134 C   0  0  0  0  0  0  0  0  0  0  0  0
   10.9832   -5.2113   18.2128 C   0  0  0  0  0  0  0  0  0  0  0  0
   11.0472   -4.8634   16.9952 N   0  0  0  0  0  0  0  0  0  0  0  0
    0.8580  -10.5026   18.1768 C   0  0  0  0  0  0  0  0  0  0  0  0
    0.6464  -12.0028   21.2115 C   0  0  0  0  0  0  0  0  0  0  0  0
   13.2100   -4.7359   22.9710 C   0  0  0  0  0  0  0  0  0  0  0  0
    9.2854   -4.3519   16.1677 O   0  0  0  0  0  0  0  0  0  0  0  0
    8.4755   -7.8630   16.0423 C   0  0  0  0  0  0  0  0  0  0  0  0
   11.7984   -4.4990   23.1489 C   0  0  0  0  0  0  0  0  0  0  0  0
    1.9859   -9.0795   16.6593 C   0  0  0  0  0  0  0  0  0  0  0  0
    4.6815   -8.3917   16.7046 C   0  0  0  0  0  0  0  0  0  0  0  0
    7.6623   -7.8132   15.7408 C   0  0  0  0  0  0  0  0  0  0  0  0
    0.3783  -12.1982   20.3360 C   0  0  0  0  0  0  0  0  0  0  0  0
    1.0695  -12.2963   19.2471 C   0  0  0  0  0  0  0  0  0  0  0  0
    9.5317   -5.2802   16.4548 C   0  0  0  0  0  0  0  0  0  0  0  0
   -0.7451  -11.3294   20.1011 C   0  0  0  0  0  0  0  0  0  0  0  0
   12.7246   -4.8534   19.3486 C   0  0  0  0  0  0  0  0  0  0  0  0
  1  8  4  0
  1 23  4  0
  2  4  4  0
  3 14  4  0
  3 25  4  0
  3 32  1  0
  4 12  4  0
  5  7  1  0
  6  9  4  0
  6 26  4  0
  7 10  1  0
  7 28  1  0
  8  9  4  0
  8 34  1  0
 10 16  4  0
 11 12  4  0
 11 27  4  0
 13 19  4  0
 14 16  4  0
 15 34  4  0
 17 21  4  0
 17 27  4  0
 18 21  4  0
 18 33  4  0
 19 20  4  0
 20 32  1  0
 22 30  4  0
 23 26  4  0
 24 32  2  0
 25 29  4  0
 30 31  4  0
 30 33  4  0
M  END
$$$$

 Created by Python create_sdf_string function

 34 80  0  0  0  0  0  0  0  0999 V2000
   13.8179   -5.1778   22.1685 C   0  0  0  0  0  0  0  0  0  0  0  0
    3.3963  -11.1789   19.7020 O   0  0  0  0  0  0  0  0  0  0  0  0
    7.9236   -6.5236   17.2778 C   0  0  0  0  0  0  0  0  0  0  0  0
    2.8113  -10.7994   18.5416 C   0  0  0  0  0  0  0  0  0  0  0  0
    4.8876   -9.4900   17.7629 O   0  0  0  0  0  0  0  0  0  0  0  0
   10.6666   -3.1538   22.5304 C   0  0  0  0  0  0  0  0  0  0  0  0
    5.3026   -8.4158   17.2354 F   0  0  0  0  0  0  0  0  0  0  0  0
    6.6413   -9.2570   17.0439 C   0  0  0  0  0  0  0  0  0  0  0  0
    2.5909   -9.7994   17.1854 B   0  0  0  0  0  0  0  0  0  0  0  0
    3.1975   -9.3577   17.5867 C   0  0  0  0  0  0  0  0  0  0  0  0
    6.5106   -7.3561   18.1193 C   0  0  0  0  0  0  0  0  0  0  0  0
    0.5221  -10.8401   17.5308 C   0  0  0  0  0  0  0  0  0  0  0  0
   10.6333   -5.6423   17.6305 C   0  0  0  0  0  0  0  0  0  0  0  0
    1.5347  -10.2406   18.6562 S   0  0  0  0  0  0  0  0  0  0  0  0
    0.2400  -11.9331   20.7262 Br  0  0  0  0  0  0  0  0  0  0  0  0
   12.3563   -5.4526   22.2480 Cl  0  0  0  0  0  0  0  0  0  0  0  0
    9.4607   -4.5178   15.8983 O   0  0  0  0  0  0  0  0  0  0  0  0
   11.4850   -5.0271   22.8213 O   0  0  0  0  0  0  0  0  0  0  0  0
    1.6767   -8.3492   16.5722 C   0  0  0  0  0  0  0  0  0  0  0  0
    5.2255   -8.8685   16.6476 C   0  0  0  0  0  0  0  0  0  0  0  0
    7.8578   -7.6588   16.5684 C   0  0  0  0  0  0  0  0  0  0  0  0
   -0.0157  -13.0060   20.6834 C   0  0  0  0  0  0  0  0  0  0  0  0
    0.5917  -12.9732   19.5167 C   0  0  0  0  0  0  0  0  0  0  0  0
   10.5225   -6.1176   16.5634 C   0  0  0  0  0  0  0  0  0  0  0  0
   -1.6903  -11.7347   21.0866 O   0  0  0  0  0  0  0  0  0  0  0  0
   13.4897   -4.1709   19.6416 C   0  0  0  0  0  0  0  0  0  0  0  0
   12.3459   -4.7609   20.9706 He  0  0  0  0  0  0  0  0  0  0  0  0
   12.5098   -5.1111   19.8482 He  0  0  0  0  0  0  0  0  0  0  0  0
   10.7984   -5.4255   18.8530 He  0  0  0  0  0  0  0  0  0  0  0  0
    7.5603   -5.4121   17.7504 He  0  0  0  0  0  0  0  0  0  0  0  0
   12.1351   -5.9883   18.6434 He  0  0  0  0  0  0  0  0  0  0  0  0
    0.5647  -11.9661   18.0280 He  0  0  0  0  0  0  0  0  0  0  0  0
   11.6137   -4.8129   16.7695 He  0  0  0  0  0  0  0  0  0  0  0  0
    9.3792   -7.1660   16.5578 He  0  0  0  0  0  0  0  0  0  0  0  0
  1  2  3  0
  1  5  4  0
  1 15  1  0
  1 16  2  0
  1 20  3  0
  1 21  4  0
  2  4  2  0
  2 10  4  0
  2 12  2  0
  2 13  4  0
  2 22  3  0
  3  6  3  0
  3 11  2  0
  3 18  4  0
  3 24  4  0
  4  5  4  0
  4  6  3  0
  4  7  2  0
  4  9  2  0
  4 10  1  0
  4 13  4  0
  4 21  3  0
  4 25  4  0
  5  6  3  0
  5  7  1  0
  5 11  3  0
  5 19  3  0
  5 21  2  0
  5 22  4  0
  5 26  3  0
  6  7  4  0
  6  8  1  0
  6 10  2  0
  6 11  4  0
  6 12  3  0
  6 15  1  0
  6 17  3  0
  6 18  3  0
  6 26  4  0
  7  8  2  0
  7 16  4  0
  7 20  1  0
  8 11  4  0
  8 22  2  0
  8 26  4  0
  9 12  4  0
  9 15  3  0
  9 18  2  0
 10 14  3  0
 10 18  3  0
 10 22  4  0
 11 12  1  0
 11 14  2  0
 11 22  1  0
 12 17  2  0
 12 18  2  0
 12 19  4  0
 12 25  1  0
 13 20  4  0
 13 22  2  0
 14 15  1  0
 14 16  4  0
 14 22  1  0
 14 25  4  0
 14 26  4  0
 15 19  4  0
 15 21  3  0
 15 22  4  0
 16 18  2  0
 16 22  2  0
 17 22  1  0
 17 24  1  0
 17 25  3  0
 17 26  1  0
 19 23  4  0
 20 22  4  0
 21 25  4  0
 22 23  4  0
 22 26  1  0
 24 25  2  0
M  END
$$$$

 Created by Python create_sdf_string function

 34 35  0  0  0  0  0  0  0  0999 V2000
   13.2129   -5.0571   21.9878 C   0  0  0  0  0  0  0  0  0  0  0  0
    3.4966  -11.3353   19.5550 O   0  0  0  0  0  0  0  0  0  0  0  0
    8.6706   -6.3294   17.0386 C   0  0  0  0  0  0  0  0  0  0  0  0
    2.7508  -10.8440   18.6361 C   0  0  0  0  0  0  0  0  0  0  0  0
    4.8144   -9.7355   17.9588 C   0  0  0  0  0  0  0  0  0  0  0  0
   10.9751   -4.0541   22.0309 C   0  0  0  0  0  0  0  0  0  0  0  0
    5.2702   -8.9063   17.1024 C   0  0  0  0  0  0  0  0  0  0  0  0
   12.4559   -4.9676   20.9215 C   0  0  0  0  0  0  0  0  0  0  0  0
   11.4840   -4.8248   20.6323 C   0  0  0  0  0  0  0  0  0  0  0  0
    6.6602   -8.2085   17.0785 C   0  0  0  0  0  0  0  0  0  0  0  0
    2.7039   -9.3646   16.8682 C   0  0  0  0  0  0  0  0  0  0  0  0
    3.1685  -10.0476   17.8159 C   0  0  0  0  0  0  0  0  0  0  0  0
   10.5049   -5.1465   19.4234 C   0  0  0  0  0  0  0  0  0  0  0  0
    7.7124   -6.3317   17.8051 C   0  0  0  0  0  0  0  0  0  0  0  0
   12.9626   -5.4723   18.3666 C   0  0  0  0  0  0  0  0  0  0  0  0
    6.6057   -7.1982   17.8368 C   0  0  0  0  0  0  0  0  0  0  0  0
    0.6494  -10.4639   17.3356 C   0  0  0  0  0  0  0  0  0  0  0  0
    0.3502  -11.6143   18.1017 C   0  0  0  0  0  0  0  0  0  0  0  0
   10.6990   -5.1579   18.0495 C   0  0  0  0  0  0  0  0  0  0  0  0
   11.9386   -4.9208   17.4949 C   0  0  0  0  0  0  0  0  0  0  0  0
    1.4334  -11.1781   18.7170 C   0  0  0  0  0  0  0  0  0  0  0  0
    0.7346  -11.6346   20.4628 C   0  0  0  0  0  0  0  0  0  0  0  0
   12.5397   -4.8738   22.7517 C   0  0  0  0  0  0  0  0  0  0  0  0
    9.5648   -4.4033   16.1329 O   0  0  0  0  0  0  0  0  0  0  0  0
    8.7652   -7.4533   16.3127 C   0  0  0  0  0  0  0  0  0  0  0  0
   11.5951   -4.6260   23.0721 O   0  0  0  0  0  0  0  0  0  0  0  0
    2.2105   -8.8820   16.1927 C   0  0  0  0  0  0  0  0  0  0  0  0
    4.4218   -8.5576   16.3990 C   0  0  0  0  0  0  0  0  0  0  0  0
    7.8137   -8.3779   16.2745 C   0  0  0  0  0  0  0  0  0  0  0  0
   -0.1620  -12.1813   20.5199 C   0  0  0  0  0  0  0  0  0  0  0  0
   -0.0432  -12.7583   19.2703 C   0  0  0  0  0  0  0  0  0  0  0  0
    9.6609   -5.1748   16.9785 C   0  0  0  0  0  0  0  0  0  0  0  0
   -1.0648  -12.2177   21.0392 O   0  0  0  0  0  0  0  0  0  0  0  0
   13.0774   -5.4158   19.3716 C   0  0  0  0  0  0  0  0  0  0  0  0
  1  8  4  0
  1 23  4  0
  2  4  2  0
  3 14  4  0
  3 25  4  0
  3 32  1  0
  4 12  4  0
  4 21  4  0
  5  7  1  0
  6  9  4  0
  6 26  4  0
  7 10  1  0
  7 28  1  0
  8  9  1  0
  8 34  4  0
  9 13  4  0
 10 16  4  0
 10 29  4  0
 11 12  4  0
 11 27  1  0
 13 19  4  0
 14 16  4  0
 15 20  4  0
 15 34  4  0
 17 18  4  0
 18 21  4  0
 18 31  4  0
 19 20  4  0
 19 32  1  0
 22 30  4  0
 23 26  4  0
 24 32  2  0
 25 29  4  0
 30 31  4  0
 30 33  1  0
M  END
$$$$

 Created by Python create_sdf_string function

 34 62  0  0  0  0  0  0  0  0999 V2000
    3.0692  -11.1602   19.9333 O   0  0  0  0  0  0  0  0  0  0  0  0
    4.3003  -10.7592   17.4444 C   0  0  0  0  0  0  0  0  0  0  0  0
   10.8113   -3.5745   21.9451 C   0  0  0  0  0  0  0  0  0  0  0  0
    5.8929   -8.2794   16.4769 P   0  0  0  0  0  0  0  0  0  0  0  0
   11.9208   -6.2930   21.2712 C   0  0  0  0  0  0  0  0  0  0  0  0
   11.4311   -5.8961   21.3721 O   0  0  0  0  0  0  0  0  0  0  0  0
    2.3337   -9.6230   16.1249 C   0  0  0  0  0  0  0  0  0  0  0  0
    2.2112   -9.9095   18.4049 C   0  0  0  0  0  0  0  0  0  0  0  0
   11.1197   -4.8560   20.1330 C   0  0  0  0  0  0  0  0  0  0  0  0
    7.2895   -5.3239   18.0539 Cl  0  0  0  0  0  0  0  0  0  0  0  0
   13.2916   -5.1147   18.3315 C   0  0  0  0  0  0  0  0  0  0  0  0
    7.4390   -7.2209   17.5265 C   0  0  0  0  0  0  0  0  0  0  0  0
   10.1585   -5.9845   18.8009 C   0  0  0  0  0  0  0  0  0  0  0  0
   12.0764   -5.8053   18.1299 C   0  0  0  0  0  0  0  0  0  0  0  0
    2.4742  -11.7982   19.2447 C   0  0  0  0  0  0  0  0  0  0  0  0
    0.1358  -11.1174   20.9494 C   0  0  0  0  0  0  0  0  0  0  0  0
   12.1272   -6.1094   23.1886 C   0  0  0  0  0  0  0  0  0  0  0  0
    9.1095   -3.7454   15.7767 S   0  0  0  0  0  0  0  0  0  0  0  0
    9.0139   -7.8522   16.5699 C   0  0  0  0  0  0  0  0  0  0  0  0
   11.1450   -4.0067   23.7239 O   0  0  0  0  0  0  0  0  0  0  0  0
    1.6926   -9.3801   16.1474 C   0  0  0  0  0  0  0  0  0  0  0  0
   -0.2725  -12.3163   20.1530 C   0  0  0  0  0  0  0  0  0  0  0  0
    0.7688  -13.2251   19.3652 S   0  0  0  0  0  0  0  0  0  0  0  0
    8.7452   -5.2420   16.1637 N   0  0  0  0  0  0  0  0  0  0  0  0
   13.9351   -5.2563   18.8412 O   0  0  0  0  0  0  0  0  0  0  0  0
   12.3887   -4.8655   22.3271 He  0  0  0  0  0  0  0  0  0  0  0  0
    9.3127   -6.7521   16.4648 He  0  0  0  0  0  0  0  0  0  0  0  0
    2.7424  -10.5781   18.5800 He  0  0  0  0  0  0  0  0  0  0  0  0
    6.8374   -8.9275   17.2796 He  0  0  0  0  0  0  0  0  0  0  0  0
   -0.6874   -9.9858   17.4083 He  0  0  0  0  0  0  0  0  0  0  0  0
    0.8387  -11.8759   18.7070 He  0  0  0  0  0  0  0  0  0  0  0  0
    3.5933   -8.6279   15.3731 He  0  0  0  0  0  0  0  0  0  0  0  0
    8.1458   -8.6314   15.4430 He  0  0  0  0  0  0  0  0  0  0  0  0
   -0.9928  -12.3468   21.2530 He  0  0  0  0  0  0  0  0  0  0  0  0
  1  9  2  0
  1 24  3  0
  2  4  1  0
  2 13  2  0
  2 20  2  0
  2 22  4  0
  2 25  1  0
  3  6  4  0
  3  9  4  0
  3 20  4  0
  3 24  4  0
  3 25  2  0
  4 12  2  0
  4 14  1  0
  4 16  1  0
  4 17  3  0
  4 18  2  0
  5  6  1  0
  5  9  3  0
  5 10  4  0
  5 15  1  0
  5 19  3  0
  5 25  4  0
  6  9  4  0
  6 14  1  0
  6 15  4  0
  6 17  1  0
  7  8  4  0
  7 13  2  0
  7 21  1  0
  7 22  3  0
  7 23  1  0
  7 25  2  0
  8 14  4  0
  9 10  2  0
 10 22  1  0
 11 13  1  0
 11 14  4  0
 11 20  1  0
 11 21  4  0
 11 23  1  0
 11 25  4  0
 12 14  1  0
 12 17  3  0
 13 23  1  0
 13 24  1  0
 14 16  4  0
 14 17  4  0
 14 22  2  0
 14 24  4  0
 15 18  1  0
 16 18  4  0
 16 23  1  0
 16 25  1  0
 17 18  1  0
 17 20  4  0
 18 20  3  0
 20 24  4  0
 21 25  2  0
 22 25  1  0
 23 25  2  0
 24 25  2  0
M  END
$$$$

 Created by Python create_sdf_string function

 34 36  0  0  0  0  0  0  0  0999 V2000
   12.8196   -5.3939   22.2528 C   0  0  0  0  0  0  0  0  0  0  0  0
    2.7399  -11.4756   19.8155 N   0  0  0  0  0  0  0  0  0  0  0  0
    8.6700   -6.5361   16.8947 C   0  0  0  0  0  0  0  0  0  0  0  0
    2.9847  -10.7173   18.3804 C   0  0  0  0  0  0  0  0  0  0  0  0
    4.7354   -9.8236   17.6141 C   0  0  0  0  0  0  0  0  0  0  0  0
   10.7401   -4.0887   21.7801 C   0  0  0  0  0  0  0  0  0  0  0  0
    5.5228   -9.1463   16.7184 C   0  0  0  0  0  0  0  0  0  0  0  0
   12.4365   -5.1878   20.8867 C   0  0  0  0  0  0  0  0  0  0  0  0
   11.2994   -4.7769   20.8067 C   0  0  0  0  0  0  0  0  0  0  0  0
    6.6205   -8.3960   16.8027 C   0  0  0  0  0  0  0  0  0  0  0  0
    2.0674   -9.6057   16.7887 C   0  0  0  0  0  0  0  0  0  0  0  0
    2.5963  -10.2042   17.6861 C   0  0  0  0  0  0  0  0  0  0  0  0
   10.6551   -4.8483   19.5359 C   0  0  0  0  0  0  0  0  0  0  0  0
    7.5430   -6.6026   17.7265 C   0  0  0  0  0  0  0  0  0  0  0  0
   12.8228   -5.7762   18.5564 C   0  0  0  0  0  0  0  0  0  0  0  0
    6.5346   -7.4174   17.7091 C   0  0  0  0  0  0  0  0  0  0  0  0
    0.4635  -10.3937   17.3390 N   0  0  0  0  0  0  0  0  0  0  0  0
    0.7059  -11.5781   18.7286 C   0  0  0  0  0  0  0  0  0  0  0  0
   10.4526   -5.3253   18.2599 C   0  0  0  0  0  0  0  0  0  0  0  0
   11.5593   -5.4718   18.2445 C   0  0  0  0  0  0  0  0  0  0  0  0
    1.9344  -11.4837   19.2121 C   0  0  0  0  0  0  0  0  0  0  0  0
    0.4499  -11.4791   20.9868 C   0  0  0  0  0  0  0  0  0  0  0  0
   12.1924   -5.0328   23.2934 C   0  0  0  0  0  0  0  0  0  0  0  0
    9.4304   -4.2419   16.2727 C   0  0  0  0  0  0  0  0  0  0  0  0
    8.6897   -7.6874   16.1102 C   0  0  0  0  0  0  0  0  0  0  0  0
   11.1252   -4.2777   23.1773 C   0  0  0  0  0  0  0  0  0  0  0  0
    2.0403   -9.3011   16.3895 C   0  0  0  0  0  0  0  0  0  0  0  0
    3.9349   -8.8568   16.1506 C   0  0  0  0  0  0  0  0  0  0  0  0
    7.7664   -8.5788   15.9866 C   0  0  0  0  0  0  0  0  0  0  0  0
   -0.2280  -12.1282   20.2505 C   0  0  0  0  0  0  0  0  0  0  0  0
    0.2509  -12.8221   19.2706 C   0  0  0  0  0  0  0  0  0  0  0  0
    9.4369   -5.3556   16.8835 C   0  0  0  0  0  0  0  0  0  0  0  0
   -0.9681  -12.1554   21.1068 C   0  0  0  0  0  0  0  0  0  0  0  0
   13.1407   -5.7398   19.6977 C   0  0  0  0  0  0  0  0  0  0  0  0
  1  8  4  0
  1 23  4  0
  2 21  4  0
  3 14  4  0
  3 25  4  0
  3 32  1  0
  4 12  4  0
  4 21  4  0
  5  7  1  0
  6  9  4  0
  6 26  4  0
  7 10  1  0
  7 28  1  0
  8  9  4  0
  8 34  4  0
  9 13  4  0
 10 16  4  0
 10 29  4  0
 11 12  4  0
 11 27  1  0
 13 19  4  0
 13 20  4  0
 14 16  4  0
 15 20  4  0
 15 34  4  0
 18 21  4  0
 18 31  4  0
 19 20  4  0
 19 32  1  0
 22 30  4  0
 23 26  4  0
 24 32  1  0
 25 29  4  0
 27 28  4  0
 30 31  4  0
 30 33  1  0
M  END
$$$$

 Created by Python create_sdf_string function

 34 97  0  0  0  0  0  0  0  0999 V2000
    3.8013  -12.0619   19.8582 N   0  0  0  0  0  0  0  0  0  0  0  0
    8.0043   -6.2873   17.0249 C   0  0  0  0  0  0  0  0  0  0  0  0
    3.4442  -11.1676   17.7887 C   0  0  0  0  0  0  0  0  0  0  0  0
    4.5793  -10.1898   17.9656 C   0  0  0  0  0  0  0  0  0  0  0  0
   11.0443   -4.6555   22.4625 C   0  0  0  0  0  0  0  0  0  0  0  0
    5.2674   -9.5289   16.6585 C   0  0  0  0  0  0  0  0  0  0  0  0
   11.6446   -4.6283   20.8990 C   0  0  0  0  0  0  0  0  0  0  0  0
   11.6004   -5.3365   21.0475 C   0  0  0  0  0  0  0  0  0  0  0  0
    6.5733   -8.9991   17.0271 C   0  0  0  0  0  0  0  0  0  0  0  0
    1.7726   -9.3233   16.4752 O   0  0  0  0  0  0  0  0  0  0  0  0
    1.7666   -9.3366   18.0702 C   0  0  0  0  0  0  0  0  0  0  0  0
    6.9889   -6.9743   18.5453 C   0  0  0  0  0  0  0  0  0  0  0  0
   11.9906   -5.1223   18.7621 C   0  0  0  0  0  0  0  0  0  0  0  0
    7.5433   -7.8455   17.8869 N   0  0  0  0  0  0  0  0  0  0  0  0
   -0.3886  -10.0197   17.5053 N   0  0  0  0  0  0  0  0  0  0  0  0
   11.1966   -4.9036   17.9399 C   0  0  0  0  0  0  0  0  0  0  0  0
   11.9729   -5.1354   18.2727 C   0  0  0  0  0  0  0  0  0  0  0  0
    1.4935  -11.0455   19.4315 C   0  0  0  0  0  0  0  0  0  0  0  0
    1.3046  -10.7671   20.8995 C   0  0  0  0  0  0  0  0  0  0  0  0
   11.9225   -4.5549   23.5227 C   0  0  0  0  0  0  0  0  0  0  0  0
    7.4904   -7.8718   15.8866 C   0  0  0  0  0  0  0  0  0  0  0  0
   11.4436   -3.6939   22.7294 C   0  0  0  0  0  0  0  0  0  0  0  0
    2.6041   -9.8050   16.8779 B   0  0  0  0  0  0  0  0  0  0  0  0
    3.7889   -9.1511   15.9704 C   0  0  0  0  0  0  0  0  0  0  0  0
    6.8293   -8.2631   14.8602 C   0  0  0  0  0  0  0  0  0  0  0  0
   -0.6366  -11.4119   20.9405 N   0  0  0  0  0  0  0  0  0  0  0  0
   -0.3467  -12.9526   20.0880 O   0  0  0  0  0  0  0  0  0  0  0  0
    8.8890   -5.8528   16.2454 C   0  0  0  0  0  0  0  0  0  0  0  0
   -0.2728  -11.8956   21.1138 F   0  0  0  0  0  0  0  0  0  0  0  0
   13.0323   -5.4498   20.1898 C   0  0  0  0  0  0  0  0  0  0  0  0
   13.7979   -4.9191   22.4826 He  0  0  0  0  0  0  0  0  0  0  0  0
    9.2850   -4.3953   19.0686 He  0  0  0  0  0  0  0  0  0  0  0  0
    0.8227  -10.9427   19.6315 He  0  0  0  0  0  0  0  0  0  0  0  0
    9.0064   -4.3187   16.4626 He  0  0  0  0  0  0  0  0  0  0  0  0
  1  2  3  0
  1  5  2  0
  1 10  2  0
  1 11  2  0
  1 12  2  0
  1 18  4  0
  1 20  2  0
  1 21  3  0
  1 22  1  0
  1 26  2  0
  2 12  2  0
  2 21  4  0
  2 28  1  0
  3  5  1  0
  3 10  1  0
  3 11  1  0
  3 17  4  0
  3 18  4  0
  3 20  3  0
  3 21  2  0
  3 23  2  0
  3 26  4  0
  4  6  1  0
  4  7  2  0
  4 29  2  0
  5  7  4  0
  5 10  4  0
  5 12  2  0
  5 13  1  0
  5 24  3  0
  6  9  1  0
  6 16  4  0
  6 21  3  0
  6 24  1  0
  7  8  4  0
  7 24  1  0
  7 30  2  0
  8  9  1  0
  8 15  1  0
  8 16  2  0
  8 18  3  0
  8 19  1  0
  8 20  4  0
  8 23  1  0
  8 29  3  0
  9 11  4  0
  9 14  4  0
  9 25  4  0
  9 28  1  0
 10 11  4  0
 10 16  4  0
 10 17  2  0
 10 20  4  0
 10 21  3  0
 10 23  1  0
 10 24  3  0
 11 14  4  0
 11 18  1  0
 11 19  2  0
 11 21  1  0
 11 23  4  0
 11 27  1  0
 11 28  1  0
 11 30  4  0
 12 14  4  0
 12 19  4  0
 12 20  2  0
 12 23  2  0
 12 24  4  0
 13 17  4  0
 13 21  4  0
 13 26  3  0
 14 19  2  0
 14 20  2  0
 14 24  2  0
 14 27  4  0
 14 28  4  0
 15 23  2  0
 16 17  4  0
 16 22  3  0
 18 30  1  0
 19 22  1  0
 19 29  3  0
 20 22  2  0
 21 25  4  0
 21 26  3  0
 21 28  1  0
 21 29  4  0
 22 26  1  0
 22 28  4  0
 22 29  2  0
 23 24  4  0
 24 30  1  0
 26 27  4  0
 26 29  1  0
 27 30  1  0
 28 30  4  0
M  END
$$$$

 Created by Python create_sdf_string function

 34 36  0  0  0  0  0  0  0  0999 V2000
   13.2204   -5.0148   22.4258 C   0  0  0  0  0  0  0  0  0  0  0  0
    2.8396  -11.3961   19.6214 N   0  0  0  0  0  0  0  0  0  0  0  0
    8.1235   -6.5921   16.7331 C   0  0  0  0  0  0  0  0  0  0  0  0
    3.6033  -10.6095   18.3171 C   0  0  0  0  0  0  0  0  0  0  0  0
    4.7807  -10.2067   18.0116 C   0  0  0  0  0  0  0  0  0  0  0  0
   10.9494   -4.2360   21.7953 C   0  0  0  0  0  0  0  0  0  0  0  0
    5.0031   -9.3979   16.9669 C   0  0  0  0  0  0  0  0  0  0  0  0
   11.5119   -4.7062   20.7867 C   0  0  0  0  0  0  0  0  0  0  0  0
   11.4396   -4.7940   20.7247 C   0  0  0  0  0  0  0  0  0  0  0  0
    6.2518   -8.5743   16.8534 C   0  0  0  0  0  0  0  0  0  0  0  0
    1.5044   -9.1785   16.4377 O   0  0  0  0  0  0  0  0  0  0  0  0
    1.6885  -10.2100   17.6438 C   0  0  0  0  0  0  0  0  0  0  0  0
   10.0210   -4.9356   18.9728 N   0  0  0  0  0  0  0  0  0  0  0  0
    7.5500   -7.1004   17.8220 C   0  0  0  0  0  0  0  0  0  0  0  0
   12.3821   -5.5446   18.6929 C   0  0  0  0  0  0  0  0  0  0  0  0
    6.6738   -8.0181   17.9503 C   0  0  0  0  0  0  0  0  0  0  0  0
   -0.0156  -10.3152   17.7098 N   0  0  0  0  0  0  0  0  0  0  0  0
    0.6328  -11.2123   19.0372 C   0  0  0  0  0  0  0  0  0  0  0  0
   10.6304   -4.8101   18.0888 C   0  0  0  0  0  0  0  0  0  0  0  0
   11.3061   -5.0035   18.3993 C   0  0  0  0  0  0  0  0  0  0  0  0
    1.8327  -11.1988   19.0964 C   0  0  0  0  0  0  0  0  0  0  0  0
    1.6382  -11.8196   20.9573 C   0  0  0  0  0  0  0  0  0  0  0  0
   12.4345   -4.4970   23.3636 C   0  0  0  0  0  0  0  0  0  0  0  0
    9.8442   -4.6899   16.6082 C   0  0  0  0  0  0  0  0  0  0  0  0
    7.8227   -7.3589   15.6468 C   0  0  0  0  0  0  0  0  0  0  0  0
   11.2786   -4.1133   23.2405 C   0  0  0  0  0  0  0  0  0  0  0  0
    2.6732   -9.6550   16.9762 C   0  0  0  0  0  0  0  0  0  0  0  0
    3.7691   -9.1537   16.2874 C   0  0  0  0  0  0  0  0  0  0  0  0
    6.9118   -8.2381   15.6678 C   0  0  0  0  0  0  0  0  0  0  0  0
   -0.2471  -11.8250   20.8890 C   0  0  0  0  0  0  0  0  0  0  0  0
   -0.3873  -11.6247   19.8140 C   0  0  0  0  0  0  0  0  0  0  0  0
    8.7095   -5.4382   16.4695 C   0  0  0  0  0  0  0  0  0  0  0  0
   -0.0268  -11.8273   21.4786 C   0  0  0  0  0  0  0  0  0  0  0  0
   12.9195   -5.4726   20.1121 C   0  0  0  0  0  0  0  0  0  0  0  0
  1 23  4  0
  2  4  4  0
  2 21  4  0
  2 22  4  0
  3 14  4  0
  3 25  4  0
  3 32  1  0
  4  5  4  0
  4 27  4  0
  5  7  4  0
  6  8  4  0
  6 26  4  0
  7 10  1  0
  7 28  4  0
  8  9  4  0
 10 16  4  0
 10 29  4  0
 11 27  1  0
 12 27  4  0
 13 19  4  0
 13 20  4  0
 14 16  4  0
 15 20  4  0
 15 34  4  0
 17 18  1  0
 18 21  4  0
 18 31  4  0
 19 20  4  0
 19 24  1  0
 22 33  4  0
 23 26  4  0
 24 32  1  0
 25 29  4  0
 27 28  4  0
 30 31  4  0
 30 33  1  0
M  END
$$$$

 Created by Python create_sdf_string function

 34103  0  0  0  0  0  0  0  0999 V2000
    2.7712  -11.6183   19.2908 N   0  0  0  0  0  0  0  0  0  0  0  0
    7.9157   -5.3301   16.0783 C   0  0  0  0  0  0  0  0  0  0  0  0
    3.5052  -10.8949   18.0381 C   0  0  0  0  0  0  0  0  0  0  0  0
    4.4910  -10.5372   18.4236 C   0  0  0  0  0  0  0  0  0  0  0  0
   10.9068   -4.0596   22.5341 Cl  0  0  0  0  0  0  0  0  0  0  0  0
    5.3242   -9.0429   16.5948 C   0  0  0  0  0  0  0  0  0  0  0  0
   12.1474   -4.7915   22.3301 C   0  0  0  0  0  0  0  0  0  0  0  0
   11.5540   -4.7059   20.0693 C   0  0  0  0  0  0  0  0  0  0  0  0
    6.1974   -8.1518   16.5871 C   0  0  0  0  0  0  0  0  0  0  0  0
    1.7826   -8.8780   16.8035 N   0  0  0  0  0  0  0  0  0  0  0  0
    1.9003  -10.4148   16.4925 C   0  0  0  0  0  0  0  0  0  0  0  0
   10.6968   -5.0982   19.1736 N   0  0  0  0  0  0  0  0  0  0  0  0
    8.0299   -7.8613   18.0400 C   0  0  0  0  0  0  0  0  0  0  0  0
   12.7155   -4.8831   18.3863 C   0  0  0  0  0  0  0  0  0  0  0  0
    6.5304   -7.3026   18.1201 C   0  0  0  0  0  0  0  0  0  0  0  0
   -0.1676  -11.0377   16.7239 C   0  0  0  0  0  0  0  0  0  0  0  0
   11.1319   -5.1554   18.9890 C   0  0  0  0  0  0  0  0  0  0  0  0
   12.0168   -5.7121   18.8306 C   0  0  0  0  0  0  0  0  0  0  0  0
    2.0466  -11.0928   19.5547 C   0  0  0  0  0  0  0  0  0  0  0  0
    0.8949  -12.1914   20.7993 N   0  0  0  0  0  0  0  0  0  0  0  0
   12.7977   -4.2249   23.4332 C   0  0  0  0  0  0  0  0  0  0  0  0
    9.7894   -4.1077   16.2535 C   0  0  0  0  0  0  0  0  0  0  0  0
    7.5101   -6.8820   15.6651 C   0  0  0  0  0  0  0  0  0  0  0  0
   11.7392   -4.2295   22.4240 S   0  0  0  0  0  0  0  0  0  0  0  0
    2.1782  -10.0639   16.5720 B   0  0  0  0  0  0  0  0  0  0  0  0
    4.3601   -8.9334   15.5840 C   0  0  0  0  0  0  0  0  0  0  0  0
    7.2886   -8.7887   15.4716 P   0  0  0  0  0  0  0  0  0  0  0  0
   -0.1102  -12.2896   20.5085 O   0  0  0  0  0  0  0  0  0  0  0  0
    8.3637   -5.3970   16.6293 C   0  0  0  0  0  0  0  0  0  0  0  0
    0.1866  -12.1625   21.6925 C   0  0  0  0  0  0  0  0  0  0  0  0
   13.2806   -4.2875   23.1695 He  0  0  0  0  0  0  0  0  0  0  0  0
    0.5481  -10.8827   18.2653 He  0  0  0  0  0  0  0  0  0  0  0  0
   -0.9877  -12.1827   19.1373 He  0  0  0  0  0  0  0  0  0  0  0  0
   13.2867   -5.6222   19.7884 He  0  0  0  0  0  0  0  0  0  0  0  0
  1  2  3  0
  1  9  4  0
  1 19  3  0
  1 21  4  0
  1 22  4  0
  1 25  3  0
  1 27  2  0
  2  5  3  0
  2  6  1  0
  2 13  3  0
  2 20  2  0
  2 24  2  0
  2 25  2  0
  2 27  3  0
  2 28  4  0
  2 29  1  0
  3  4  4  0
  3 10  1  0
  3 12  2  0
  3 19  4  0
  3 23  4  0
  3 27  2  0
  4  6  2  0
  4  8  4  0
  4 13  2  0
  4 14  2  0
  4 19  3  0
  4 25  3  0
  5  7  4  0
  5 12  2  0
  5 13  2  0
  5 20  2  0
  5 24  1  0
  5 28  2  0
  6  7  3  0
  6 10  3  0
  6 12  2  0
  6 17  3  0
  6 18  3  0
  6 20  4  0
  6 21  3  0
  6 23  2  0
  6 26  4  0
  7  8  4  0
  7 10  1  0
  7 13  2  0
  7 15  2  0
  7 21  1  0
  7 22  3  0
  7 27  2  0
  7 30  3  0
  8 11  1  0
  8 17  4  0
  8 18  2  0
  8 19  1  0
  8 27  4  0
  9 15  4  0
  9 17  2  0
  9 23  1  0
  9 24  4  0
  9 27  4  0
 10 13  2  0
 10 19  3  0
 10 26  4  0
 11 13  1  0
 11 15  4  0
 11 16  3  0
 11 25  3  0
 11 30  4  0
 12 17  4  0
 12 18  4  0
 12 30  4  0
 13 14  3  0
 13 15  4  0
 14 16  1  0
 14 28  3  0
 15 21  4  0
 15 23  3  0
 15 30  3  0
 16 17  1  0
 16 20  4  0
 16 24  2  0
 17 18  4  0
 17 19  2  0
 17 20  1  0
 17 25  3  0
 17 26  2  0
 17 30  3  0
 18 20  1  0
 18 21  4  0
 18 24  4  0
 18 27  4  0
 19 30  4  0
 20 28  1  0
 21 23  2  0
 23 25  1  0
 23 27  4  0
 24 27  4  0
 24 30  4  0
 25 26  3  0
 26 28  3  0
 26 29  1  0
 28 30  1  0
M  END
$$$$

 Created by Python create_sdf_string function

 34 37  0  0  0  0  0  0  0  0999 V2000
   13.2922   -4.4693   22.9231 C   0  0  0  0  0  0  0  0  0  0  0  0
    2.8566  -11.2804   19.3225 N   0  0  0  0  0  0  0  0  0  0  0  0
    8.1062   -6.3883   16.6364 C   0  0  0  0  0  0  0  0  0  0  0  0
    3.2632  -10.5191   18.2052 C   0  0  0  0  0  0  0  0  0  0  0  0
    4.5736   -9.9372   17.9940 C   0  0  0  0  0  0  0  0  0  0  0  0
   11.0435   -4.0890   22.4738 C   0  0  0  0  0  0  0  0  0  0  0  0
    4.9800   -9.0667   16.9651 C   0  0  0  0  0  0  0  0  0  0  0  0
   11.8822   -4.5501   21.7487 C   0  0  0  0  0  0  0  0  0  0  0  0
   11.9107   -4.9003   20.6113 C   0  0  0  0  0  0  0  0  0  0  0  0
    6.2394   -8.3152   16.7833 C   0  0  0  0  0  0  0  0  0  0  0  0
    2.7163   -9.1079   16.2702 N   0  0  0  0  0  0  0  0  0  0  0  0
    0.9894  -10.3198   16.9700 C   0  0  0  0  0  0  0  0  0  0  0  0
   10.6287   -5.0151   18.8211 N   0  0  0  0  0  0  0  0  0  0  0  0
    7.7286   -6.9137   17.7783 C   0  0  0  0  0  0  0  0  0  0  0  0
   12.6905   -5.5936   18.3677 C   0  0  0  0  0  0  0  0  0  0  0  0
    6.7519   -7.8590   17.9247 C   0  0  0  0  0  0  0  0  0  0  0  0
   -0.1389  -10.8549   16.9351 C   0  0  0  0  0  0  0  0  0  0  0  0
    0.5746  -11.3103   18.4897 C   0  0  0  0  0  0  0  0  0  0  0  0
   10.8396   -4.8094   20.0775 C   0  0  0  0  0  0  0  0  0  0  0  0
   11.2223   -5.0846   18.0835 C   0  0  0  0  0  0  0  0  0  0  0  0
    1.7024  -11.3967   19.3305 C   0  0  0  0  0  0  0  0  0  0  0  0
    1.0287  -12.1427   20.9973 N   0  0  0  0  0  0  0  0  0  0  0  0
   13.1210   -4.4997   23.0010 C   0  0  0  0  0  0  0  0  0  0  0  0
    9.9419   -4.5936   16.6916 C   0  0  0  0  0  0  0  0  0  0  0  0
    7.7410   -6.9657   15.5153 C   0  0  0  0  0  0  0  0  0  0  0  0
   11.5040   -4.1510   22.6232 N   0  0  0  0  0  0  0  0  0  0  0  0
    2.3006   -9.9966   17.1741 C   0  0  0  0  0  0  0  0  0  0  0  0
    3.9274   -8.7902   16.0758 C   0  0  0  0  0  0  0  0  0  0  0  0
    6.8060   -7.9457   15.6083 C   0  0  0  0  0  0  0  0  0  0  0  0
   -0.0024  -12.1305   20.3999 C   0  0  0  0  0  0  0  0  0  0  0  0
   -0.6017  -11.9006   19.1938 C   0  0  0  0  0  0  0  0  0  0  0  0
    8.8758   -5.2544   16.5220 O   0  0  0  0  0  0  0  0  0  0  0  0
    0.1588  -12.0716   21.2165 C   0  0  0  0  0  0  0  0  0  0  0  0
   13.0203   -5.4935   19.7526 C   0  0  0  0  0  0  0  0  0  0  0  0
  1 23  4  0
  1 26  4  0
  2  4  4  0
  2 21  4  0
  3 14  4  0
  3 25  4  0
  3 32  1  0
  4  5  4  0
  4 27  4  0
  5  7  4  0
  6  8  4  0
  6 26  4  0
  7 10  1  0
  7 28  4  0
  8  9  1  0
  9 19  4  0
  9 34  4  0
 10 16  4  0
 10 29  4  0
 11 27  4  0
 11 28  4  0
 12 17  4  0
 12 27  4  0
 13 19  4  0
 13 20  4  0
 14 16  4  0
 15 20  4  0
 15 34  4  0
 18 21  4  0
 18 31  4  0
 20 24  1  0
 22 30  4  0
 22 33  4  0
 24 32  1  0
 25 29  4  0
 30 31  4  0
 30 33  1  0
M  END
$$$$

 Created by Python create_sdf_string function

 34 64  0  0  0  0  0  0  0  0999 V2000
   13.0426   -4.8513   23.4400 C   0  0  0  0  0  0  0  0  0  0  0  0
    2.8042  -10.6657   19.9117 Cl  0  0  0  0  0  0  0  0  0  0  0  0
    8.5154   -5.9579   16.4687 C   0  0  0  0  0  0  0  0  0  0  0  0
    3.2906  -10.6301   18.0789 C   0  0  0  0  0  0  0  0  0  0  0  0
    3.8404  -10.5937   18.5054 C   0  0  0  0  0  0  0  0  0  0  0  0
   10.7641   -3.4251   22.5943 P   0  0  0  0  0  0  0  0  0  0  0  0
   11.7258   -4.8741   21.7567 C   0  0  0  0  0  0  0  0  0  0  0  0
    0.9107   -9.6672   17.1883 C   0  0  0  0  0  0  0  0  0  0  0  0
   10.5030   -5.1495   18.5421 N   0  0  0  0  0  0  0  0  0  0  0  0
    7.8052   -6.8409   16.6798 N   0  0  0  0  0  0  0  0  0  0  0  0
    6.2472   -7.8608   18.5766 Cl  0  0  0  0  0  0  0  0  0  0  0  0
    0.1435  -11.5898   17.0451 C   0  0  0  0  0  0  0  0  0  0  0  0
   10.9293   -4.8760   18.1933 C   0  0  0  0  0  0  0  0  0  0  0  0
    1.0210  -12.5320   20.5860 N   0  0  0  0  0  0  0  0  0  0  0  0
   12.8592   -4.2941   22.0035 C   0  0  0  0  0  0  0  0  0  0  0  0
   10.3291   -3.8675   16.4371 C   0  0  0  0  0  0  0  0  0  0  0  0
    7.2181   -6.7160   16.5397 C   0  0  0  0  0  0  0  0  0  0  0  0
   11.3453   -4.0062   22.4241 N   0  0  0  0  0  0  0  0  0  0  0  0
    1.8696   -9.3320   17.4214 C   0  0  0  0  0  0  0  0  0  0  0  0
    3.6639   -8.7381   15.5329 C   0  0  0  0  0  0  0  0  0  0  0  0
    5.8829   -7.0738   15.7168 Br  0  0  0  0  0  0  0  0  0  0  0  0
   -0.5227  -12.3730   18.5935 C   0  0  0  0  0  0  0  0  0  0  0  0
    8.6194   -5.4599   16.5539 N   0  0  0  0  0  0  0  0  0  0  0  0
   12.5459   -4.9912   20.4188 C   0  0  0  0  0  0  0  0  0  0  0  0
    4.0684   -8.4371   16.3987 He  0  0  0  0  0  0  0  0  0  0  0  0
   12.0511   -4.5240   21.5740 He  0  0  0  0  0  0  0  0  0  0  0  0
    6.8900   -8.3653   17.3693 He  0  0  0  0  0  0  0  0  0  0  0  0
    2.3157   -8.6273   15.9079 He  0  0  0  0  0  0  0  0  0  0  0  0
   12.5842   -6.2322   18.4177 He  0  0  0  0  0  0  0  0  0  0  0  0
    0.5772  -11.3936   17.8157 He  0  0  0  0  0  0  0  0  0  0  0  0
   10.7730   -5.0968   20.0015 He  0  0  0  0  0  0  0  0  0  0  0  0
    1.4805  -12.2504   19.1814 He  0  0  0  0  0  0  0  0  0  0  0  0
    0.1249  -12.3700   19.8384 He  0  0  0  0  0  0  0  0  0  0  0  0
    0.2895  -12.0106   21.8395 He  0  0  0  0  0  0  0  0  0  0  0  0
  1  4  4  0
  1  7  2  0
  1  9  3  0
  1 18  2  0
  1 22  2  0
  2  4  4  0
  2  5  2  0
  2 11  4  0
  2 16  2  0
  2 21  4  0
  3  5  2  0
  3  9  4  0
  3 10  4  0
  3 12  3  0
  3 23  1  0
  4  5  1  0
  4  6  1  0
  4  8  3  0
  4 12  2  0
  4 13  4  0
  4 15  2  0
  4 19  1  0
  4 21  4  0
  4 23  4  0
  5  8  3  0
  5 13  1  0
  5 17  3  0
  5 24  3  0
  6  8  3  0
  6  9  4  0
  7 16  3  0
  7 19  4  0
  7 20  1  0
  7 23  3  0
  7 24  4  0
  8 12  4  0
  8 13  1  0
  8 18  4  0
  8 19  4  0
  8 20  4  0
  9 21  3  0
  9 24  1  0
 10 12  3  0
 10 20  3  0
 10 22  3  0
 10 23  1  0
 11 17  1  0
 12 15  4  0
 12 17  3  0
 12 18  1  0
 12 22  2  0
 13 16  1  0
 15 16  3  0
 15 22  2  0
 16 17  3  0
 16 23  1  0
 17 21  4  0
 17 23  1  0
 18 20  3  0
 18 21  1  0
 18 23  2  0
 19 21  2  0
 19 22  4  0
 20 24  2  0
M  END
$$$$

 Created by Python create_sdf_string function

 34 33  0  0  0  0  0  0  0  0999 V2000
   13.0312   -4.5168   23.3293 C   0  0  0  0  0  0  0  0  0  0  0  0
    2.7428  -11.0735   18.9507 N   0  0  0  0  0  0  0  0  0  0  0  0
    8.7093   -6.0043   17.1119 C   0  0  0  0  0  0  0  0  0  0  0  0
    2.9032  -10.2816   17.9881 C   0  0  0  0  0  0  0  0  0  0  0  0
    4.0775   -9.9573   18.0615 C   0  0  0  0  0  0  0  0  0  0  0  0
   10.6735   -3.6239   22.5961 C   0  0  0  0  0  0  0  0  0  0  0  0
    4.6046   -8.6193   16.8320 C   0  0  0  0  0  0  0  0  0  0  0  0
   11.8334   -4.7128   21.2472 C   0  0  0  0  0  0  0  0  0  0  0  0
   11.7721   -4.5723   21.4026 C   0  0  0  0  0  0  0  0  0  0  0  0
    6.1015   -8.0453   17.4043 C   0  0  0  0  0  0  0  0  0  0  0  0
    2.4506   -8.9166   16.1240 C   0  0  0  0  0  0  0  0  0  0  0  0
    0.8719  -10.2040   16.8596 C   0  0  0  0  0  0  0  0  0  0  0  0
    9.8834   -5.6990   18.6488 N   0  0  0  0  0  0  0  0  0  0  0  0
    7.9367   -6.5719   17.2402 C   0  0  0  0  0  0  0  0  0  0  0  0
   12.2357   -5.6528   18.3287 O   0  0  0  0  0  0  0  0  0  0  0  0
    6.7521   -7.9864   18.0054 C   0  0  0  0  0  0  0  0  0  0  0  0
   -0.0178  -11.2252   17.3283 C   0  0  0  0  0  0  0  0  0  0  0  0
    0.4073  -11.7116   18.3825 C   0  0  0  0  0  0  0  0  0  0  0  0
   10.7420   -5.1487   19.6606 C   0  0  0  0  0  0  0  0  0  0  0  0
   10.8540   -5.1331   18.0436 C   0  0  0  0  0  0  0  0  0  0  0  0
    1.5163  -11.6078   19.1580 C   0  0  0  0  0  0  0  0  0  0  0  0
    1.0988  -12.4260   20.6391 N   0  0  0  0  0  0  0  0  0  0  0  0
   13.1166   -4.7168   22.2867 C   0  0  0  0  0  0  0  0  0  0  0  0
   10.3459   -4.3025   16.7153 C   0  0  0  0  0  0  0  0  0  0  0  0
    6.7819   -6.7579   15.8749 C   0  0  0  0  0  0  0  0  0  0  0  0
   11.3822   -3.9946   22.9974 N   0  0  0  0  0  0  0  0  0  0  0  0
    2.0729   -9.8452   17.0567 C   0  0  0  0  0  0  0  0  0  0  0  0
    3.6206   -8.4762   16.0635 C   0  0  0  0  0  0  0  0  0  0  0  0
    5.9646   -7.3982   16.1686 C   0  0  0  0  0  0  0  0  0  0  0  0
    0.1793  -12.5743   20.2029 C   0  0  0  0  0  0  0  0  0  0  0  0
   -0.4586  -12.4338   18.8575 C   0  0  0  0  0  0  0  0  0  0  0  0
    8.9936   -5.2349   16.3783 N   0  0  0  0  0  0  0  0  0  0  0  0
    0.6833  -12.2062   21.5378 C   0  0  0  0  0  0  0  0  0  0  0  0
   12.4415   -5.2780   20.0604 C   0  0  0  0  0  0  0  0  0  0  0  0
  1 23  4  0
  1 26  4  0
  2  4  4  0
  2 21  4  0
  3 13  4  0
  3 14  4  0
  3 32  1  0
  4  5  4  0
  4 27  4  0
  5  7  4  0
  6 26  4  0
  7 10  1  0
  7 28  4  0
  8 34  4  0
 10 16  4  0
 10 29  4  0
 11 27  4  0
 11 28  4  0
 12 17  4  0
 12 27  4  0
 13 19  4  0
 13 20  4  0
 15 20  4  0
 17 18  4  0
 18 21  4  0
 18 31  4  0
 20 24  1  0
 22 30  4  0
 22 33  4  0
 24 32  1  0
 25 29  4  0
 30 31  4  0
 30 33  1  0
M  END
$$$$

 Created by Python create_sdf_string function

 34 63  0  0  0  0  0  0  0  0999 V2000
   13.5463   -4.1569   23.1290 S   0  0  0  0  0  0  0  0  0  0  0  0
    4.3324   -8.4824   16.8209 F   0  0  0  0  0  0  0  0  0  0  0  0
   12.3133   -4.6289   20.7217 C   0  0  0  0  0  0  0  0  0  0  0  0
   10.7229   -4.6005   20.9659 C   0  0  0  0  0  0  0  0  0  0  0  0
    6.6709   -7.6912   16.2554 C   0  0  0  0  0  0  0  0  0  0  0  0
    2.7211   -9.4868   15.9989 C   0  0  0  0  0  0  0  0  0  0  0  0
    0.9852   -9.9865   17.0097 O   0  0  0  0  0  0  0  0  0  0  0  0
   10.3464   -5.3726   19.1143 Cl  0  0  0  0  0  0  0  0  0  0  0  0
    7.3022   -7.0047   16.8008 C   0  0  0  0  0  0  0  0  0  0  0  0
   12.3660   -6.0895   17.5943 O   0  0  0  0  0  0  0  0  0  0  0  0
    6.0365   -7.5379   18.3038 C   0  0  0  0  0  0  0  0  0  0  0  0
   -0.6615  -11.2134   17.4214 S   0  0  0  0  0  0  0  0  0  0  0  0
   -0.1202  -11.9180   18.6987 C   0  0  0  0  0  0  0  0  0  0  0  0
   10.3910   -5.0583   19.5167 C   0  0  0  0  0  0  0  0  0  0  0  0
   10.2713   -4.9413   18.8064 C   0  0  0  0  0  0  0  0  0  0  0  0
    1.2917  -11.3223   19.6393 C   0  0  0  0  0  0  0  0  0  0  0  0
   13.0999   -5.4281   22.3986 C   0  0  0  0  0  0  0  0  0  0  0  0
   10.5130   -4.0828   16.4843 C   0  0  0  0  0  0  0  0  0  0  0  0
    6.9985   -7.5822   14.8900 C   0  0  0  0  0  0  0  0  0  0  0  0
    2.8416   -9.3635   17.8466 C   0  0  0  0  0  0  0  0  0  0  0  0
    3.4358   -9.2887   16.7332 S   0  0  0  0  0  0  0  0  0  0  0  0
    6.8491   -6.4513   15.9403 N   0  0  0  0  0  0  0  0  0  0  0  0
    0.0760  -12.6365   19.5856 O   0  0  0  0  0  0  0  0  0  0  0  0
    9.9677   -4.8027   16.1132 N   0  0  0  0  0  0  0  0  0  0  0  0
    0.7434  -11.1938   20.5733 C   0  0  0  0  0  0  0  0  0  0  0  0
   12.8710   -5.3423   20.4680 C   0  0  0  0  0  0  0  0  0  0  0  0
    2.4266  -11.2250   18.3466 He  0  0  0  0  0  0  0  0  0  0  0  0
    9.5847   -5.6752   17.7784 He  0  0  0  0  0  0  0  0  0  0  0  0
    2.7098  -10.2902   18.6406 He  0  0  0  0  0  0  0  0  0  0  0  0
    3.5477   -9.1763   17.7343 He  0  0  0  0  0  0  0  0  0  0  0  0
   10.9596   -2.9945   22.9825 He  0  0  0  0  0  0  0  0  0  0  0  0
    1.1633  -12.4740   20.7380 He  0  0  0  0  0  0  0  0  0  0  0  0
   11.2296   -4.2897   23.9836 He  0  0  0  0  0  0  0  0  0  0  0  0
   -0.1641  -11.7936   19.0852 He  0  0  0  0  0  0  0  0  0  0  0  0
  1 13  1  0
  1 14  2  0
  1 15  1  0
  1 17  2  0
  1 21  2  0
  2  4  4  0
  2 16  4  0
  2 17  2  0
  2 21  4  0
  3  4  4  0
  3  5  2  0
  3 12  2  0
  3 13  1  0
  3 22  4  0
  4  5  2  0
  4  7  2  0
  4 14  1  0
  4 17  2  0
  5  8  3  0
  5 10  3  0
  5 11  4  0
  5 15  4  0
  5 19  4  0
  6  9  3  0
  6 17  4  0
  6 20  1  0
  6 21  4  0
  7 15  3  0
  7 20  4  0
  7 24  4  0
  8 14  4  0
  8 15  4  0
  8 20  1  0
  9 14  2  0
  9 22  2  0
 10 24  4  0
 11 15  2  0
 12 13  3  0
 12 18  1  0
 12 22  3  0
 12 23  4  0
 12 25  2  0
 13 16  4  0
 13 19  1  0
 13 26  1  0
 14 20  2  0
 14 23  2  0
 14 25  3  0
 15 17  3  0
 15 21  4  0
 15 22  1  0
 15 24  4  0
 15 25  4  0
 17 18  2  0
 18 21  3  0
 18 24  2  0
 18 25  3  0
 19 22  4  0
 20 21  2  0
 20 22  2  0
 22 23  3  0
 22 25  1  0
 23 25  1  0
M  END
$$$$

 Created by Python create_sdf_string function

 34 36  0  0  0  0  0  0  0  0999 V2000
   12.8415   -4.5236   23.1770 C   0  0  0  0  0  0  0  0  0  0  0  0
    2.5509  -10.7491   18.9433 C   0  0  0  0  0  0  0  0  0  0  0  0
    9.0816   -5.8405   17.5471 C   0  0  0  0  0  0  0  0  0  0  0  0
    3.1209  -10.1606   18.1871 C   0  0  0  0  0  0  0  0  0  0  0  0
    4.4850   -9.3659   17.8627 N   0  0  0  0  0  0  0  0  0  0  0  0
   10.8589   -3.5814   23.1651 C   0  0  0  0  0  0  0  0  0  0  0  0
    4.8337   -8.5733   16.8446 C   0  0  0  0  0  0  0  0  0  0  0  0
   11.8657   -4.8511   21.0100 C   0  0  0  0  0  0  0  0  0  0  0  0
   10.8767   -4.1116   21.4894 C   0  0  0  0  0  0  0  0  0  0  0  0
    6.0927   -7.7858   16.6792 C   0  0  0  0  0  0  0  0  0  0  0  0
    2.6666   -9.0541   16.0544 C   0  0  0  0  0  0  0  0  0  0  0  0
    0.8491  -10.3188   16.9136 N   0  0  0  0  0  0  0  0  0  0  0  0
   10.3900   -5.1498   19.1246 C   0  0  0  0  0  0  0  0  0  0  0  0
    7.9404   -6.5660   17.2362 C   0  0  0  0  0  0  0  0  0  0  0  0
   12.1763   -5.2058   17.9184 O   0  0  0  0  0  0  0  0  0  0  0  0
    6.7821   -7.3806   17.7506 C   0  0  0  0  0  0  0  0  0  0  0  0
   -0.3467  -11.1524   17.3858 C   0  0  0  0  0  0  0  0  0  0  0  0
    0.0973  -11.6187   18.6163 C   0  0  0  0  0  0  0  0  0  0  0  0
   10.2659   -5.1788   19.1645 C   0  0  0  0  0  0  0  0  0  0  0  0
   10.6828   -5.2932   18.5636 C   0  0  0  0  0  0  0  0  0  0  0  0
    1.3476  -11.2320   19.2842 C   0  0  0  0  0  0  0  0  0  0  0  0
    0.8384  -12.3244   21.0887 C   0  0  0  0  0  0  0  0  0  0  0  0
   13.2541   -4.9738   22.0601 C   0  0  0  0  0  0  0  0  0  0  0  0
   10.5250   -4.2740   16.4642 C   0  0  0  0  0  0  0  0  0  0  0  0
    6.5807   -7.3155   15.5024 C   0  0  0  0  0  0  0  0  0  0  0  0
   11.6279   -3.8208   23.4386 C   0  0  0  0  0  0  0  0  0  0  0  0
    2.2553   -9.8934   17.2258 C   0  0  0  0  0  0  0  0  0  0  0  0
    3.7845   -8.6121   15.9647 C   0  0  0  0  0  0  0  0  0  0  0  0
    7.6853   -6.5445   15.8095 N   0  0  0  0  0  0  0  0  0  0  0  0
   -0.2320  -12.8396   20.4698 C   0  0  0  0  0  0  0  0  0  0  0  0
   -0.6032  -12.4877   19.2189 C   0  0  0  0  0  0  0  0  0  0  0  0
    9.6844   -5.0245   16.7691 N   0  0  0  0  0  0  0  0  0  0  0  0
    1.6307  -11.5376   20.4008 C   0  0  0  0  0  0  0  0  0  0  0  0
   12.7587   -5.3128   20.4471 C   0  0  0  0  0  0  0  0  0  0  0  0
  1 23  4  0
  1 26  4  0
  2  4  4  0
  2 21  4  0
  3 14  1  0
  3 32  4  0
  4  5  4  0
  4 27  4  0
  5  7  4  0
  6  9  4  0
  6 26  4  0
  7 10  1  0
  7 28  4  0
  8  9  4  0
  8 34  4  0
 10 16  4  0
 10 25  4  0
 11 27  4  0
 11 28  4  0
 12 17  4  0
 12 27  4  0
 13 19  4  0
 13 20  4  0
 14 16  4  0
 14 29  4  0
 15 20  4  0
 17 18  4  0
 18 21  4  0
 18 31  4  0
 21 33  4  0
 22 30  4  0
 22 33  4  0
 23 34  4  0
 24 32  4  0
 25 29  4  0
 30 31  4  0
M  END
$$$$

 Created by Python create_sdf_string function

 34 70  0  0  0  0  0  0  0  0999 V2000
   13.2922   -4.6922   23.1386 C   0  0  0  0  0  0  0  0  0  0  0  0
    3.1454  -10.7041   18.9118 C   0  0  0  0  0  0  0  0  0  0  0  0
    3.5611  -10.5830   17.9914 C   0  0  0  0  0  0  0  0  0  0  0  0
   11.1217   -3.5116   23.0910 C   0  0  0  0  0  0  0  0  0  0  0  0
    4.4025   -8.1228   16.7851 C   0  0  0  0  0  0  0  0  0  0  0  0
   10.7166   -3.6896   21.8448 C   0  0  0  0  0  0  0  0  0  0  0  0
    6.3997   -8.0075   15.6139 C   0  0  0  0  0  0  0  0  0  0  0  0
    2.0569  -10.0455   16.1067 C   0  0  0  0  0  0  0  0  0  0  0  0
    0.9978  -10.3921   17.1006 N   0  0  0  0  0  0  0  0  0  0  0  0
   10.2981   -5.2380   18.5938 F   0  0  0  0  0  0  0  0  0  0  0  0
    8.0698   -7.0991   17.8436 C   0  0  0  0  0  0  0  0  0  0  0  0
   12.9891   -4.7639   17.8338 Cl  0  0  0  0  0  0  0  0  0  0  0  0
    6.4584   -7.1568   17.7914 C   0  0  0  0  0  0  0  0  0  0  0  0
   -0.3200  -11.4216   17.2089 C   0  0  0  0  0  0  0  0  0  0  0  0
    0.2995  -11.2390   18.9893 N   0  0  0  0  0  0  0  0  0  0  0  0
   10.2288   -5.5439   19.2630 S   0  0  0  0  0  0  0  0  0  0  0  0
   10.9629   -5.3889   19.3979 C   0  0  0  0  0  0  0  0  0  0  0  0
    0.9002  -11.5162   20.3505 Cl  0  0  0  0  0  0  0  0  0  0  0  0
    0.7077  -12.0620   21.2706 C   0  0  0  0  0  0  0  0  0  0  0  0
    9.8171   -5.2639   17.2803 C   0  0  0  0  0  0  0  0  0  0  0  0
    6.9497   -8.2183   15.3691 C   0  0  0  0  0  0  0  0  0  0  0  0
    2.7609   -9.6831   18.2335 C   0  0  0  0  0  0  0  0  0  0  0  0
    4.4956   -8.5893   15.6059 C   0  0  0  0  0  0  0  0  0  0  0  0
    8.2414   -6.0062   16.3644 N   0  0  0  0  0  0  0  0  0  0  0  0
   -0.5617  -12.4298   20.9019 C   0  0  0  0  0  0  0  0  0  0  0  0
   -0.7518  -12.8736   19.0636 C   0  0  0  0  0  0  0  0  0  0  0  0
   10.3625   -4.9292   16.8837 N   0  0  0  0  0  0  0  0  0  0  0  0
    0.6908  -10.6043   20.4167 C   0  0  0  0  0  0  0  0  0  0  0  0
    9.6200   -6.1603   17.8313 He  0  0  0  0  0  0  0  0  0  0  0  0
    4.8517   -9.6419   18.1848 He  0  0  0  0  0  0  0  0  0  0  0  0
   10.6272   -5.3574   21.7997 He  0  0  0  0  0  0  0  0  0  0  0  0
   13.1575   -5.5273   22.4884 He  0  0  0  0  0  0  0  0  0  0  0  0
   11.9249   -4.0496   23.7770 He  0  0  0  0  0  0  0  0  0  0  0  0
   12.5522   -6.0874   20.4742 He  0  0  0  0  0  0  0  0  0  0  0  0
  1  3  4  0
  1  8  3  0
  1 10  2  0
  1 19  2  0
  2  3  4  0
  2  4  4  0
  2  6  4  0
  2 11  4  0
  2 14  1  0
  2 18  4  0
  3  4  4  0
  3 12  4  0
  3 13  2  0
  3 17  2  0
  4  6  3  0
  4  7  4  0
  4  8  4  0
  4 15  2  0
  5  7  1  0
  5 12  4  0
  5 15  1  0
  5 19  3  0
  5 20  2  0
  5 24  4  0
  6  8  2  0
  6 27  3  0
  7 12  3  0
  7 13  1  0
  7 14  4  0
  7 17  2  0
  7 21  4  0
  8  9  4  0
  8 14  3  0
  8 22  4  0
  8 23  4  0
  9 22  4  0
  9 26  3  0
 10 17  4  0
 10 18  3  0
 11 13  4  0
 11 15  2  0
 11 24  4  0
 11 26  3  0
 12 17  3  0
 12 28  2  0
 13 25  1  0
 13 28  2  0
 14 15  1  0
 14 16  2  0
 14 19  2  0
 14 23  1  0
 15 18  4  0
 15 24  2  0
 15 26  4  0
 16 24  4  0
 16 26  1  0
 17 18  2  0
 17 24  3  0
 18 27  3  0
 19 25  4  0
 20 27  3  0
 21 24  4  0
 21 25  4  0
 21 27  2  0
 22 25  2  0
 23 25  1  0
 24 26  3  0
 25 26  4  0
 25 27  1  0
 26 28  2  0
M  END
$$$$

 Created by Python create_sdf_string function

 34 37  0  0  0  0  0  0  0  0999 V2000
   13.0138   -4.7950   23.1755 C   0  0  0  0  0  0  0  0  0  0  0  0
    2.6106  -10.6751   18.6955 C   0  0  0  0  0  0  0  0  0  0  0  0
    9.1735   -6.0300   17.8997 C   0  0  0  0  0  0  0  0  0  0  0  0
    3.3678  -10.1709   18.1798 C   0  0  0  0  0  0  0  0  0  0  0  0
    4.7945   -9.4946   17.8621 N   0  0  0  0  0  0  0  0  0  0  0  0
   11.0261   -3.6615   23.1979 C   0  0  0  0  0  0  0  0  0  0  0  0
    5.1394   -8.6783   16.8721 C   0  0  0  0  0  0  0  0  0  0  0  0
   11.2398   -4.9469   20.9099 C   0  0  0  0  0  0  0  0  0  0  0  0
   10.7825   -4.1136   21.9795 C   0  0  0  0  0  0  0  0  0  0  0  0
    6.2748   -7.9755   16.7729 C   0  0  0  0  0  0  0  0  0  0  0  0
    2.7091   -9.2786   16.2683 C   0  0  0  0  0  0  0  0  0  0  0  0
    1.1314  -10.4074   17.0135 N   0  0  0  0  0  0  0  0  0  0  0  0
   10.0797   -5.6531   18.6521 C   0  0  0  0  0  0  0  0  0  0  0  0
    8.1441   -6.6989   17.2708 C   0  0  0  0  0  0  0  0  0  0  0  0
   12.4138   -4.9864   17.8636 C   0  0  0  0  0  0  0  0  0  0  0  0
    7.0381   -7.3962   17.8236 C   0  0  0  0  0  0  0  0  0  0  0  0
    0.0615  -11.3439   17.3719 C   0  0  0  0  0  0  0  0  0  0  0  0
    0.1720  -11.6997   18.8247 C   0  0  0  0  0  0  0  0  0  0  0  0
   10.1324   -5.5537   19.7791 C   0  0  0  0  0  0  0  0  0  0  0  0
   11.2571   -5.2109   18.3737 C   0  0  0  0  0  0  0  0  0  0  0  0
    1.2985  -11.2759   19.5203 C   0  0  0  0  0  0  0  0  0  0  0  0
    0.2888  -11.9324   21.5080 C   0  0  0  0  0  0  0  0  0  0  0  0
   13.1868   -5.2091   22.2737 C   0  0  0  0  0  0  0  0  0  0  0  0
   10.0375   -4.7980   16.8737 C   0  0  0  0  0  0  0  0  0  0  0  0
    6.9575   -7.5778   15.6180 C   0  0  0  0  0  0  0  0  0  0  0  0
   12.2191   -4.0424   23.7152 C   0  0  0  0  0  0  0  0  0  0  0  0
    2.5475  -10.0402   17.4271 C   0  0  0  0  0  0  0  0  0  0  0  0
    4.0561   -8.6860   15.8762 C   0  0  0  0  0  0  0  0  0  0  0  0
    7.9006   -6.9209   15.8344 C   0  0  0  0  0  0  0  0  0  0  0  0
   -0.6899  -12.5585   20.8693 C   0  0  0  0  0  0  0  0  0  0  0  0
   -0.7303  -12.3526   19.4366 C   0  0  0  0  0  0  0  0  0  0  0  0
   10.1320   -4.9135   16.8729 N   0  0  0  0  0  0  0  0  0  0  0  0
    1.2932  -11.3708   20.7534 C   0  0  0  0  0  0  0  0  0  0  0  0
   12.4439   -5.3047   20.3827 C   0  0  0  0  0  0  0  0  0  0  0  0
  1 23  4  0
  1 26  4  0
  2  4  4  0
  2 21  4  0
  2 27  4  0
  3 13  4  0
  3 14  1  0
  4  5  4  0
  4 27  4  0
  5  7  4  0
  6  9  4  0
  6 26  4  0
  7 10  1  0
  7 28  4  0
  8  9  4  0
  8 19  1  0
  8 34  1  0
 10 16  4  0
 10 25  4  0
 11 27  4  0
 11 28  4  0
 12 17  4  0
 12 27  4  0
 13 19  1  0
 13 20  4  0
 14 16  4  0
 14 29  4  0
 15 20  4  0
 17 18  4  0
 18 21  4  0
 18 31  4  0
 21 33  4  0
 22 30  4  0
 22 33  4  0
 24 32  4  0
 25 29  4  0
 30 31  4  0
M  END
$$$$

 Created by Python create_sdf_string function

 34 81  0  0  0  0  0  0  0  0999 V2000
   13.1639   -4.7930   22.9781 C   0  0  0  0  0  0  0  0  0  0  0  0
    2.7420  -10.5711   17.8686 C   0  0  0  0  0  0  0  0  0  0  0  0
    9.5787   -6.6869   18.2227 S   0  0  0  0  0  0  0  0  0  0  0  0
    2.7418   -9.8757   18.0200 C   0  0  0  0  0  0  0  0  0  0  0  0
    4.8126   -9.2132   18.1262 N   0  0  0  0  0  0  0  0  0  0  0  0
   10.7888   -2.8431   23.1182 C   0  0  0  0  0  0  0  0  0  0  0  0
    5.4568   -8.0967   17.2115 I   0  0  0  0  0  0  0  0  0  0  0  0
   11.2576   -5.1066   22.2034 C   0  0  0  0  0  0  0  0  0  0  0  0
   10.3794   -4.1157   22.4422 N   0  0  0  0  0  0  0  0  0  0  0  0
    6.4843   -7.6588   17.0748 I   0  0  0  0  0  0  0  0  0  0  0  0
    2.7799   -9.0013   16.5200 C   0  0  0  0  0  0  0  0  0  0  0  0
    0.8826  -10.3398   17.3631 N   0  0  0  0  0  0  0  0  0  0  0  0
    9.8468   -5.8207   18.8308 C   0  0  0  0  0  0  0  0  0  0  0  0
    7.1451   -7.2712   17.3026 C   0  0  0  0  0  0  0  0  0  0  0  0
   12.6013   -4.6937   17.6644 Cl  0  0  0  0  0  0  0  0  0  0  0  0
    6.8123   -7.1133   17.2423 C   0  0  0  0  0  0  0  0  0  0  0  0
   -0.1094  -11.4161   16.9282 O   0  0  0  0  0  0  0  0  0  0  0  0
    1.6000  -10.8145   19.4708 C   0  0  0  0  0  0  0  0  0  0  0  0
   12.7140   -4.1468   22.1713 C   0  0  0  0  0  0  0  0  0  0  0  0
    9.6719   -4.8473   16.7782 C   0  0  0  0  0  0  0  0  0  0  0  0
    7.3854   -7.8549   15.0670 F   0  0  0  0  0  0  0  0  0  0  0  0
   12.3858   -4.3035   23.6261 C   0  0  0  0  0  0  0  0  0  0  0  0
    2.2915  -10.3477   17.1751 F   0  0  0  0  0  0  0  0  0  0  0  0
    3.6779   -8.6528   15.3460 C   0  0  0  0  0  0  0  0  0  0  0  0
   -0.4382  -11.4495   21.1579 P   0  0  0  0  0  0  0  0  0  0  0  0
   -0.2569  -12.5577   18.9146 C   0  0  0  0  0  0  0  0  0  0  0  0
    0.7916  -11.0060   21.5585 F   0  0  0  0  0  0  0  0  0  0  0  0
   12.5491   -5.4491   20.3900 C   0  0  0  0  0  0  0  0  0  0  0  0
    0.5171  -11.9946   18.6166 He  0  0  0  0  0  0  0  0  0  0  0  0
   10.2765   -6.2042   19.4286 He  0  0  0  0  0  0  0  0  0  0  0  0
   10.7778   -5.1915   18.3051 He  0  0  0  0  0  0  0  0  0  0  0  0
   -0.1901  -12.1145   21.5810 He  0  0  0  0  0  0  0  0  0  0  0  0
    8.2451   -6.6109   16.1166 He  0  0  0  0  0  0  0  0  0  0  0  0
    9.7099   -3.9403   16.5951 He  0  0  0  0  0  0  0  0  0  0  0  0
  1 11  4  0
  1 18  3  0
  1 19  4  0
  1 22  4  0
  1 24  1  0
  2  6  1  0
  2  7  4  0
  2 15  4  0
  2 18  3  0
  2 19  1  0
  2 21  2  0
  2 23  1  0
  2 25  3  0
  2 26  1  0
  2 27  4  0
  3 13  4  0
  3 26  4  0
  3 28  4  0
  4  5  4  0
  4 19  3  0
  4 21  1  0
  4 23  4  0
  4 25  3  0
  5  7  4  0
  5 14  4  0
  5 21  3  0
  6 11  4  0
  6 14  1  0
  6 15  1  0
  6 16  4  0
  6 22  4  0
  6 27  3  0
  7 10  1  0
  7 11  3  0
  7 13  1  0
  7 24  4  0
  8  9  4  0
  8 11  1  0
  8 14  3  0
  8 16  3  0
  8 18  1  0
  8 23  1  0
  8 26  2  0
  8 28  2  0
  9 12  2  0
  9 14  3  0
  9 18  3  0
  9 24  3  0
  9 27  4  0
 10 13  4  0
 10 19  1  0
 11 23  4  0
 11 24  4  0
 11 28  4  0
 12 17  4  0
 12 22  4  0
 12 23  2  0
 13 15  4  0
 13 16  2  0
 13 19  3  0
 13 20  2  0
 14 18  3  0
 14 26  3  0
 15 27  4  0
 16 27  4  0
 16 28  4  0
 17 22  4  0
 17 23  3  0
 17 26  1  0
 17 27  1  0
 18 20  4  0
 18 27  4  0
 19 25  4  0
 21 23  2  0
 21 27  4  0
 22 28  4  0
 23 28  3  0
 24 26  4  0
 25 26  1  0
 25 27  4  0
 26 27  4  0
M  END
$$$$

 Created by Python create_sdf_string function

 34 39  0  0  0  0  0  0  0  0999 V2000
   13.0458   -4.3078   23.0768 C   0  0  0  0  0  0  0  0  0  0  0  0
    1.9356  -10.5246   18.0910 C   0  0  0  0  0  0  0  0  0  0  0  0
    9.1270   -6.7986   18.4201 C   0  0  0  0  0  0  0  0  0  0  0  0
    3.5915   -9.9908   18.1369 C   0  0  0  0  0  0  0  0  0  0  0  0
    4.9054   -9.2125   17.9262 N   0  0  0  0  0  0  0  0  0  0  0  0
   10.8473   -3.4351   23.3291 C   0  0  0  0  0  0  0  0  0  0  0  0
    5.0459   -8.5693   16.8767 C   0  0  0  0  0  0  0  0  0  0  0  0
   11.6470   -4.6523   21.5364 C   0  0  0  0  0  0  0  0  0  0  0  0
   10.6514   -3.9304   22.0841 C   0  0  0  0  0  0  0  0  0  0  0  0
    6.2479   -7.9081   16.6483 C   0  0  0  0  0  0  0  0  0  0  0  0
    2.8741   -9.1815   16.2655 C   0  0  0  0  0  0  0  0  0  0  0  0
    0.6628  -10.7338   16.9368 N   0  0  0  0  0  0  0  0  0  0  0  0
   10.1013   -5.8608   18.7616 C   0  0  0  0  0  0  0  0  0  0  0  0
    8.0984   -6.7929   17.1968 C   0  0  0  0  0  0  0  0  0  0  0  0
   11.6160   -4.3320   17.7344 N   0  0  0  0  0  0  0  0  0  0  0  0
    6.8541   -7.3407   17.4201 C   0  0  0  0  0  0  0  0  0  0  0  0
    0.0080  -11.4807   17.5781 N   0  0  0  0  0  0  0  0  0  0  0  0
    0.1876  -11.6555   18.8623 C   0  0  0  0  0  0  0  0  0  0  0  0
   10.6465   -5.8625   19.9322 O   0  0  0  0  0  0  0  0  0  0  0  0
   10.5804   -5.0650   17.8194 C   0  0  0  0  0  0  0  0  0  0  0  0
    1.2920  -11.1454   19.4048 C   0  0  0  0  0  0  0  0  0  0  0  0
   -0.3446  -11.9775   21.4566 C   0  0  0  0  0  0  0  0  0  0  0  0
   12.8478   -4.9308   22.3259 C   0  0  0  0  0  0  0  0  0  0  0  0
    9.6920   -4.9495   16.7380 C   0  0  0  0  0  0  0  0  0  0  0  0
    6.9588   -7.8695   15.6065 C   0  0  0  0  0  0  0  0  0  0  0  0
   12.1188   -3.5465   23.7546 C   0  0  0  0  0  0  0  0  0  0  0  0
    2.6116   -9.9594   17.5509 C   0  0  0  0  0  0  0  0  0  0  0  0
    3.9678   -8.5130   15.9600 C   0  0  0  0  0  0  0  0  0  0  0  0
    8.4620   -5.9949   16.4038 C   0  0  0  0  0  0  0  0  0  0  0  0
   -0.1284  -11.9109   21.1983 C   0  0  0  0  0  0  0  0  0  0  0  0
   -0.6611  -12.2225   19.5513 C   0  0  0  0  0  0  0  0  0  0  0  0
    9.9038   -4.1434   16.1755 O   0  0  0  0  0  0  0  0  0  0  0  0
    1.1341  -11.3413   20.9366 C   0  0  0  0  0  0  0  0  0  0  0  0
   11.8553   -5.2318   20.2120 C   0  0  0  0  0  0  0  0  0  0  0  0
  1 23  4  0
  1 26  4  0
  2 12  4  0
  2 21  4  0
  2 27  1  0
  3 13  4  0
  3 14  4  0
  4  5  4  0
  4 27  4  0
  5  7  4  0
  6  9  4  0
  6 26  4  0
  7 10  1  0
  7 28  4  0
  8  9  4  0
  8 23  4  0
  8 34  1  0
 10 16  1  0
 10 25  1  0
 11 27  4  0
 11 28  4  0
 12 17  4  0
 13 19  1  0
 13 20  4  0
 14 16  1  0
 14 29  4  0
 15 20  1  0
 17 18  4  0
 18 21  4  0
 18 31  4  0
 19 34  1  0
 20 24  4  0
 21 33  4  0
 22 30  4  0
 22 33  4  0
 24 29  4  0
 24 32  4  0
 30 31  4  0
 30 33  4  0
M  END
$$$$

 Created by Python create_sdf_string function

 34 49  0  0  0  0  0  0  0  0999 V2000
   13.6797   -3.5899   23.1177 C   0  0  0  0  0  0  0  0  0  0  0  0
    9.5424   -7.4809   19.4191 C   0  0  0  0  0  0  0  0  0  0  0  0
    4.4198   -9.7279   17.8153 N   0  0  0  0  0  0  0  0  0  0  0  0
   10.5481   -4.0032   23.2015 C   0  0  0  0  0  0  0  0  0  0  0  0
    4.7076   -7.8530   16.2389 C   0  0  0  0  0  0  0  0  0  0  0  0
   11.3059   -3.8772   22.1107 C   0  0  0  0  0  0  0  0  0  0  0  0
    3.1748   -9.6439   16.2749 C   0  0  0  0  0  0  0  0  0  0  0  0
    1.1597  -10.5003   16.8614 N   0  0  0  0  0  0  0  0  0  0  0  0
   10.0016   -5.8442   18.4679 C   0  0  0  0  0  0  0  0  0  0  0  0
   11.2009   -3.8627   17.8656 N   0  0  0  0  0  0  0  0  0  0  0  0
    7.4377   -7.6161   17.3958 C   0  0  0  0  0  0  0  0  0  0  0  0
   -0.9449  -11.7736   17.3602 N   0  0  0  0  0  0  0  0  0  0  0  0
    0.1726  -11.0857   18.0851 C   0  0  0  0  0  0  0  0  0  0  0  0
   10.7897   -5.9276   17.6492 C   0  0  0  0  0  0  0  0  0  0  0  0
    1.1014  -11.1565   19.6850 F   0  0  0  0  0  0  0  0  0  0  0  0
   13.7682   -5.6632   22.3492 C   0  0  0  0  0  0  0  0  0  0  0  0
   10.0381   -4.5886   16.6518 C   0  0  0  0  0  0  0  0  0  0  0  0
    7.8304   -8.1485   15.6414 C   0  0  0  0  0  0  0  0  0  0  0  0
   11.6220   -3.7978   23.5249 S   0  0  0  0  0  0  0  0  0  0  0  0
    2.7619  -10.0019   17.5535 O   0  0  0  0  0  0  0  0  0  0  0  0
    4.0924   -8.6750   15.9326 C   0  0  0  0  0  0  0  0  0  0  0  0
    8.7145   -6.0135   16.3788 C   0  0  0  0  0  0  0  0  0  0  0  0
   10.2700   -4.5677   16.8082 O   0  0  0  0  0  0  0  0  0  0  0  0
   12.0493   -6.2505   21.1392 C   0  0  0  0  0  0  0  0  0  0  0  0
    1.5564   -9.7912   18.2409 He  0  0  0  0  0  0  0  0  0  0  0  0
    3.2004  -10.1730   18.8401 He  0  0  0  0  0  0  0  0  0  0  0  0
   11.7387   -5.3181   22.3971 He  0  0  0  0  0  0  0  0  0  0  0  0
    5.6197   -7.4251   16.9872 He  0  0  0  0  0  0  0  0  0  0  0  0
    6.9480   -6.1018   16.6101 He  0  0  0  0  0  0  0  0  0  0  0  0
   10.9900   -6.2844   19.6636 He  0  0  0  0  0  0  0  0  0  0  0  0
    0.0631  -12.0235   21.9574 He  0  0  0  0  0  0  0  0  0  0  0  0
   -0.0513  -12.3759   20.8962 He  0  0  0  0  0  0  0  0  0  0  0  0
   -0.5685  -11.8784   18.5949 He  0  0  0  0  0  0  0  0  0  0  0  0
    1.4990  -12.0605   20.8507 He  0  0  0  0  0  0  0  0  0  0  0  0
  1 16  1  0
  1 17  2  0
  1 19  1  0
  1 20  3  0
  1 23  1  0
  2  7  4  0
  2  9  4  0
  2 14  2  0
  2 17  3  0
  3  5  4  0
  3 12  2  0
  3 16  1  0
  3 17  1  0
  3 21  3  0
  4  6  3  0
  4 10  3  0
  4 19  2  0
  4 22  4  0
  4 24  1  0
  5 13  2  0
  6 19  4  0
  7  9  2  0
  7 13  4  0
  7 15  3  0
  7 20  4  0
  7 21  4  0
  8 12  4  0
  8 20  1  0
  8 21  1  0
  9 14  4  0
  9 16  2  0
  9 23  3  0
 10 13  4  0
 10 22  1  0
 10 24  2  0
 12 13  4  0
 12 16  2  0
 13 14  1  0
 13 15  4  0
 13 24  4  0
 14 18  1  0
 14 24  1  0
 15 19  3  0
 17 22  4  0
 17 23  4  0
 19 22  1  0
 19 23  1  0
 19 24  3  0
 20 24  1  0
M  END
$$$$

 Created by Python create_sdf_string function

 34 38  0  0  0  0  0  0  0  0999 V2000
   13.4585   -4.1961   23.2691 C   0  0  0  0  0  0  0  0  0  0  0  0
    1.4985  -10.6218   17.9324 C   0  0  0  0  0  0  0  0  0  0  0  0
    9.7355   -7.4627   18.6440 C   0  0  0  0  0  0  0  0  0  0  0  0
    3.7821  -10.0370   18.1836 N   0  0  0  0  0  0  0  0  0  0  0  0
    4.8486   -9.4006   17.9503 N   0  0  0  0  0  0  0  0  0  0  0  0
   11.1341   -3.5744   23.2185 C   0  0  0  0  0  0  0  0  0  0  0  0
    5.0334   -8.6586   16.8530 C   0  0  0  0  0  0  0  0  0  0  0  0
   11.9995   -4.9583   21.6848 C   0  0  0  0  0  0  0  0  0  0  0  0
   11.0231   -4.3023   22.1958 C   0  0  0  0  0  0  0  0  0  0  0  0
    6.1879   -7.8912   16.4987 C   0  0  0  0  0  0  0  0  0  0  0  0
    2.8022   -9.2428   16.3116 C   0  0  0  0  0  0  0  0  0  0  0  0
    0.7370  -10.4689   17.0237 N   0  0  0  0  0  0  0  0  0  0  0  0
   10.0021   -6.0978   18.2515 C   0  0  0  0  0  0  0  0  0  0  0  0
    7.7783   -6.3435   16.5550 C   0  0  0  0  0  0  0  0  0  0  0  0
   11.0124   -4.1429   17.9884 N   0  0  0  0  0  0  0  0  0  0  0  0
    6.7416   -7.0711   17.3443 C   0  0  0  0  0  0  0  0  0  0  0  0
   -0.5283  -11.3687   17.4159 N   0  0  0  0  0  0  0  0  0  0  0  0
   -0.1503  -11.6347   18.5917 C   0  0  0  0  0  0  0  0  0  0  0  0
   11.2229   -5.8143   19.7896 C   0  0  0  0  0  0  0  0  0  0  0  0
   10.6536   -5.2999   18.4687 C   0  0  0  0  0  0  0  0  0  0  0  0
    1.2650  -11.1911   19.2204 C   0  0  0  0  0  0  0  0  0  0  0  0
    0.1060  -12.3155   22.0769 C   0  0  0  0  0  0  0  0  0  0  0  0
   13.1772   -5.0201   22.2113 C   0  0  0  0  0  0  0  0  0  0  0  0
    9.4926   -4.7246   16.4232 C   0  0  0  0  0  0  0  0  0  0  0  0
    7.2643   -8.5004   15.6518 C   0  0  0  0  0  0  0  0  0  0  0  0
   12.2965   -3.4724   23.6252 C   0  0  0  0  0  0  0  0  0  0  0  0
    2.7703   -9.8957   17.4849 C   0  0  0  0  0  0  0  0  0  0  0  0
    3.9462   -8.5716   15.9777 C   0  0  0  0  0  0  0  0  0  0  0  0
    8.8906   -5.8247   16.9017 C   0  0  0  0  0  0  0  0  0  0  0  0
    0.0118  -12.1637   20.7618 C   0  0  0  0  0  0  0  0  0  0  0  0
   -0.7268  -12.1281   19.3225 N   0  0  0  0  0  0  0  0  0  0  0  0
   10.2561   -4.0305   16.6248 C   0  0  0  0  0  0  0  0  0  0  0  0
    1.2501  -11.5547   20.5293 N   0  0  0  0  0  0  0  0  0  0  0  0
   11.8087   -5.5280   20.4795 C   0  0  0  0  0  0  0  0  0  0  0  0
  1 23  4  0
  1 26  4  0
  2 12  4  0
  2 21  4  0
  2 27  1  0
  3 13  1  0
  4  5  4  0
  4 27  4  0
  5  7  4  0
  6  9  4  0
  6 26  4  0
  7 10  1  0
  7 28  4  0
  8  9  4  0
  8 23  4  0
  8 34  1  0
 10 16  1  0
 10 25  1  0
 11 27  4  0
 11 28  4  0
 12 17  4  0
 13 20  4  0
 13 29  4  0
 14 16  1  0
 14 29  1  0
 15 20  4  0
 15 32  4  0
 17 18  4  0
 18 21  4  0
 18 31  4  0
 19 20  1  0
 19 34  1  0
 21 33  4  0
 22 30  4  0
 24 29  4  0
 24 32  4  0
 30 31  4  0
 30 33  4  0
M  END
$$$$

 Created by Python create_sdf_string function

 34 92  0  0  0  0  0  0  0  0999 V2000
   12.7212   -5.4718   22.2984 C   0  0  0  0  0  0  0  0  0  0  0  0
    9.4526   -6.7446   18.9763 C   0  0  0  0  0  0  0  0  0  0  0  0
    4.3270   -9.4499   18.5254 Se  0  0  0  0  0  0  0  0  0  0  0  0
    5.1939   -9.0357   17.2423 N   0  0  0  0  0  0  0  0  0  0  0  0
   11.0268   -3.3781   23.0561 C   0  0  0  0  0  0  0  0  0  0  0  0
    5.0712   -8.6311   16.5715 C   0  0  0  0  0  0  0  0  0  0  0  0
   12.8569   -5.3548   21.7129 N   0  0  0  0  0  0  0  0  0  0  0  0
   11.4238   -4.3824   22.4532 O   0  0  0  0  0  0  0  0  0  0  0  0
    6.1189   -8.5685   16.1404 C   0  0  0  0  0  0  0  0  0  0  0  0
    1.9886   -8.9390   16.4441 C   0  0  0  0  0  0  0  0  0  0  0  0
    9.6825   -6.0199   18.4757 P   0  0  0  0  0  0  0  0  0  0  0  0
    7.4517   -5.6586   16.4687 C   0  0  0  0  0  0  0  0  0  0  0  0
   10.9944   -3.7138   18.0621 N   0  0  0  0  0  0  0  0  0  0  0  0
   -0.3810  -10.9990   16.6383 O   0  0  0  0  0  0  0  0  0  0  0  0
   -0.4804  -12.5672   18.2679 C   0  0  0  0  0  0  0  0  0  0  0  0
   10.8426   -5.7089   20.6644 Cl  0  0  0  0  0  0  0  0  0  0  0  0
   10.6219   -5.8596   18.4536 N   0  0  0  0  0  0  0  0  0  0  0  0
    1.6674  -10.8999   18.7685 C   0  0  0  0  0  0  0  0  0  0  0  0
    0.0673  -12.0390   21.4002 C   0  0  0  0  0  0  0  0  0  0  0  0
   13.4995   -5.6311   22.5519 C   0  0  0  0  0  0  0  0  0  0  0  0
    9.7782   -4.3212   17.0405 F   0  0  0  0  0  0  0  0  0  0  0  0
    7.5860   -8.5094   15.3392 C   0  0  0  0  0  0  0  0  0  0  0  0
    2.3600   -8.7164   17.2471 C   0  0  0  0  0  0  0  0  0  0  0  0
    3.5715   -8.5520   16.1578 C   0  0  0  0  0  0  0  0  0  0  0  0
    9.2058   -5.7519   16.3647 C   0  0  0  0  0  0  0  0  0  0  0  0
    0.1750  -12.1738   20.3460 C   0  0  0  0  0  0  0  0  0  0  0  0
   -1.1308  -12.2448   19.3424 N   0  0  0  0  0  0  0  0  0  0  0  0
   10.1819   -4.4130   16.8342 C   0  0  0  0  0  0  0  0  0  0  0  0
    1.3696  -11.4442   20.9405 N   0  0  0  0  0  0  0  0  0  0  0  0
   11.3047   -5.3661   20.6303 C   0  0  0  0  0  0  0  0  0  0  0  0
    1.5566  -10.4250   17.8033 He  0  0  0  0  0  0  0  0  0  0  0  0
    0.0331  -10.7744   16.9465 He  0  0  0  0  0  0  0  0  0  0  0  0
    6.3575   -7.0577   16.8282 He  0  0  0  0  0  0  0  0  0  0  0  0
   13.0963   -3.3229   24.3021 He  0  0  0  0  0  0  0  0  0  0  0  0
  1 10  2  0
  1 15  1  0
  1 16  1  0
  1 20  4  0
  2  5  3  0
  2  6  4  0
  2 10  3  0
  2 11  1  0
  2 14  1  0
  3 21  2  0
  3 22  2  0
  3 23  4  0
  3 27  1  0
  4  5  3  0
  4  6  4  0
  4 14  4  0
  4 20  3  0
  5  8  4  0
  5 12  1  0
  5 15  4  0
  5 23  2  0
  6  9  1  0
  6 11  3  0
  6 13  1  0
  6 20  1  0
  6 21  1  0
  6 24  4  0
  7  8  4  0
  7  9  4  0
  7 13  1  0
  7 14  2  0
  7 16  1  0
  7 18  1  0
  7 20  4  0
  7 24  3  0
  7 30  1  0
  9 12  4  0
  9 15  2  0
  9 22  1  0
 10 14  1  0
 10 19  1  0
 10 23  4  0
 10 24  4  0
 10 25  4  0
 11 14  1  0
 11 17  4  0
 11 18  3  0
 11 21  2  0
 11 25  4  0
 11 26  4  0
 11 27  3  0
 11 30  4  0
 12 21  1  0
 12 25  1  0
 12 28  2  0
 12 29  4  0
 13 17  3  0
 13 28  4  0
 14 15  3  0
 14 22  4  0
 15 18  4  0
 15 23  1  0
 15 24  3  0
 15 27  4  0
 16 29  1  0
 16 30  1  0
 17 18  2  0
 17 21  1  0
 17 28  3  0
 18 19  3  0
 18 20  4  0
 18 29  3  0
 19 24  1  0
 19 25  4  0
 19 26  4  0
 19 28  3  0
 20 29  2  0
 21 22  2  0
 21 24  2  0
 21 25  4  0
 21 26  2  0
 21 30  4  0
 22 23  4  0
 22 24  3  0
 22 25  4  0
 23 28  2  0
 24 27  4  0
 24 29  3  0
 26 27  4  0
 26 29  4  0
 27 29  2  0
 29 30  1  0
M  END
$$$$

 Created by Python create_sdf_string function

 34 37  0  0  0  0  0  0  0  0999 V2000
   13.5171   -4.8873   23.2858 C   0  0  0  0  0  0  0  0  0  0  0  0
    1.4933  -10.5255   17.9018 N   0  0  0  0  0  0  0  0  0  0  0  0
    9.4626   -7.3663   18.5773 C   0  0  0  0  0  0  0  0  0  0  0  0
    3.7877   -9.9085   18.0781 N   0  0  0  0  0  0  0  0  0  0  0  0
    4.8676   -9.2015   17.6986 N   0  0  0  0  0  0  0  0  0  0  0  0
   11.6153   -3.5118   23.4479 C   0  0  0  0  0  0  0  0  0  0  0  0
    4.9510   -8.5762   16.5485 C   0  0  0  0  0  0  0  0  0  0  0  0
   12.0227   -4.9418   21.7940 C   0  0  0  0  0  0  0  0  0  0  0  0
   11.1247   -4.0008   22.4105 C   0  0  0  0  0  0  0  0  0  0  0  0
    6.2465   -8.0963   15.9230 C   0  0  0  0  0  0  0  0  0  0  0  0
    2.7022   -8.9677   16.2670 C   0  0  0  0  0  0  0  0  0  0  0  0
    0.3590  -10.8387   17.1370 C   0  0  0  0  0  0  0  0  0  0  0  0
    9.6341   -6.0087   18.0737 C   0  0  0  0  0  0  0  0  0  0  0  0
    7.7531   -6.1839   16.3265 C   0  0  0  0  0  0  0  0  0  0  0  0
   10.9183   -4.0145   17.9734 N   0  0  0  0  0  0  0  0  0  0  0  0
    6.7176   -6.9984   16.6979 C   0  0  0  0  0  0  0  0  0  0  0  0
   -0.3131  -11.0402   16.6847 O   0  0  0  0  0  0  0  0  0  0  0  0
   -0.1418  -11.6728   18.6417 C   0  0  0  0  0  0  0  0  0  0  0  0
   11.0980   -5.4553   20.0384 O   0  0  0  0  0  0  0  0  0  0  0  0
   10.5183   -5.1672   18.6546 C   0  0  0  0  0  0  0  0  0  0  0  0
    1.1818  -11.0688   18.9928 C   0  0  0  0  0  0  0  0  0  0  0  0
   -0.0083  -12.2231   21.3207 C   0  0  0  0  0  0  0  0  0  0  0  0
   13.2796   -5.3446   22.4363 C   0  0  0  0  0  0  0  0  0  0  0  0
    9.5156   -4.5332   16.3241 N   0  0  0  0  0  0  0  0  0  0  0  0
    7.4266   -8.6722   15.4964 C   0  0  0  0  0  0  0  0  0  0  0  0
   12.8084   -3.9203   24.0042 C   0  0  0  0  0  0  0  0  0  0  0  0
    2.6543   -9.7585   17.4337 C   0  0  0  0  0  0  0  0  0  0  0  0
    3.7401   -8.3922   15.9133 C   0  0  0  0  0  0  0  0  0  0  0  0
    9.0123   -5.6241   16.9543 C   0  0  0  0  0  0  0  0  0  0  0  0
   -0.0892  -12.1839   20.6892 C   0  0  0  0  0  0  0  0  0  0  0  0
   -0.7745  -12.2865   19.3859 N   0  0  0  0  0  0  0  0  0  0  0  0
   10.3828   -3.8267   16.7964 C   0  0  0  0  0  0  0  0  0  0  0  0
    1.4579  -11.3318   20.2401 N   0  0  0  0  0  0  0  0  0  0  0  0
   11.7551   -5.1558   20.5999 C   0  0  0  0  0  0  0  0  0  0  0  0
  1 23  4  0
  1 26  4  0
  2 12  4  0
  2 21  4  0
  2 27  1  0
  3 13  1  0
  4  5  4  0
  4 27  4  0
  5  7  4  0
  6  9  4  0
  6 26  4  0
  7 10  1  0
  7 28  4  0
  8  9  4  0
  8 23  4  0
  8 34  1  0
 10 16  1  0
 10 25  1  0
 11 27  4  0
 11 28  4  0
 12 17  2  0
 13 20  4  0
 13 29  4  0
 14 16  1  0
 14 29  1  0
 15 20  4  0
 15 32  4  0
 18 21  4  0
 18 31  4  0
 19 20  1  0
 19 34  1  0
 21 33  4  0
 22 30  4  0
 24 29  4  0
 24 32  4  0
 30 31  4  0
 30 33  4  0
M  END
$$$$

 Created by Python create_sdf_string function

 34 80  0  0  0  0  0  0  0  0999 V2000
   13.5379   -4.6390   23.2728 C   0  0  0  0  0  0  0  0  0  0  0  0
    2.1523  -10.7158   17.2799 N   0  0  0  0  0  0  0  0  0  0  0  0
    9.9021   -7.6798   18.4248 O   0  0  0  0  0  0  0  0  0  0  0  0
    4.3069   -9.7860   18.7484 N   0  0  0  0  0  0  0  0  0  0  0  0
   11.7682   -3.3296   22.8216 C   0  0  0  0  0  0  0  0  0  0  0  0
   11.9082   -4.9324   21.7508 C   0  0  0  0  0  0  0  0  0  0  0  0
   11.3898   -4.6457   22.5315 F   0  0  0  0  0  0  0  0  0  0  0  0
    6.5837   -9.2808   16.0861 P   0  0  0  0  0  0  0  0  0  0  0  0
    2.1791   -9.6640   16.3724 C   0  0  0  0  0  0  0  0  0  0  0  0
    0.4308  -11.1442   16.8126 C   0  0  0  0  0  0  0  0  0  0  0  0
    7.5813   -6.5020   15.9438 C   0  0  0  0  0  0  0  0  0  0  0  0
   11.0293   -4.1045   18.1121 N   0  0  0  0  0  0  0  0  0  0  0  0
    6.3470   -7.2746   16.4961 C   0  0  0  0  0  0  0  0  0  0  0  0
   -0.1893  -11.3665   17.7311 C   0  0  0  0  0  0  0  0  0  0  0  0
   11.7146   -5.4884   19.7278 O   0  0  0  0  0  0  0  0  0  0  0  0
   10.5922   -4.8739   18.9043 Cl  0  0  0  0  0  0  0  0  0  0  0  0
    0.8672  -10.8751   19.2845 C   0  0  0  0  0  0  0  0  0  0  0  0
   13.1753   -5.7917   22.1016 C   0  0  0  0  0  0  0  0  0  0  0  0
    9.6177   -4.4716   16.1439 C   0  0  0  0  0  0  0  0  0  0  0  0
    7.5532   -8.7333   15.5501 C   0  0  0  0  0  0  0  0  0  0  0  0
   12.8531   -3.9336   24.6651 C   0  0  0  0  0  0  0  0  0  0  0  0
    2.9923  -10.2195   17.4717 P   0  0  0  0  0  0  0  0  0  0  0  0
    4.0024   -8.6210   15.8048 C   0  0  0  0  0  0  0  0  0  0  0  0
    8.1509   -5.8064   16.3044 C   0  0  0  0  0  0  0  0  0  0  0  0
   -0.3330  -12.0981   20.7747 C   0  0  0  0  0  0  0  0  0  0  0  0
   -1.0346  -11.8469   18.6856 N   0  0  0  0  0  0  0  0  0  0  0  0
   10.0681   -3.4581   17.7241 C   0  0  0  0  0  0  0  0  0  0  0  0
    1.8317  -11.4541   21.0830 N   0  0  0  0  0  0  0  0  0  0  0  0
    4.8092   -9.3443   17.6337 He  0  0  0  0  0  0  0  0  0  0  0  0
    5.6247   -8.7003   15.7129 He  0  0  0  0  0  0  0  0  0  0  0  0
    8.9075   -6.2081   17.6890 He  0  0  0  0  0  0  0  0  0  0  0  0
   -0.3121  -10.7014   16.2721 He  0  0  0  0  0  0  0  0  0  0  0  0
   -0.1391  -12.4956   22.1775 He  0  0  0  0  0  0  0  0  0  0  0  0
   11.4591   -5.7147   20.9589 He  0  0  0  0  0  0  0  0  0  0  0  0
  1  5  3  0
  1 10  4  0
  1 11  1  0
  1 12  2  0
  1 16  2  0
  1 18  4  0
  1 20  2  0
  1 21  4  0
  1 27  2  0
  2  3  3  0
  2  5  1  0
  2  7  2  0
  2 11  2  0
  2 14  4  0
  2 15  2  0
  2 17  4  0
  2 18  1  0
  2 21  3  0
  3 18  4  0
  3 21  3  0
  3 28  4  0
  4 14  3  0
  4 15  2  0
  4 21  2  0
  4 22  4  0
  4 27  4  0
  5  6  3  0
  5 15  4  0
  5 19  4  0
  5 21  4  0
  5 23  1  0
  6  7  4  0
  6 18  3  0
  6 20  4  0
  6 28  4  0
  7  8  1  0
  7 12  1  0
  7 15  3  0
  7 21  4  0
  8 17  2  0
  8 23  3  0
  8 24  4  0
  9 10  1  0
  9 17  4  0
  9 18  3  0
  9 22  4  0
  9 23  4  0
  9 24  4  0
  9 25  1  0
 10 15  4  0
 10 20  4  0
 10 27  4  0
 11 13  3  0
 11 20  2  0
 12 16  4  0
 12 24  1  0
 12 27  4  0
 13 14  2  0
 13 20  2  0
 13 27  3  0
 14 17  4  0
 14 26  4  0
 15 16  1  0
 16 25  1  0
 17 22  2  0
 17 24  4  0
 17 25  1  0
 17 28  3  0
 18 23  2  0
 18 26  3  0
 18 28  3  0
 19 24  4  0
 19 27  4  0
 20 21  1  0
 20 24  4  0
 22 28  3  0
 25 26  4  0
 25 28  4  0
 26 27  4  0
 27 28  1  0
M  END
$$$$

 Created by Python create_sdf_string function

 34 36  0  0  0  0  0  0  0  0999 V2000
   13.5851   -4.8520   23.3944 C   0  0  0  0  0  0  0  0  0  0  0  0
    1.6104  -10.6218   17.9945 N   0  0  0  0  0  0  0  0  0  0  0  0
    9.4127   -7.5422   18.3936 C   0  0  0  0  0  0  0  0  0  0  0  0
    3.9075  -10.0173   18.1993 N   0  0  0  0  0  0  0  0  0  0  0  0
    5.0008   -9.4127   17.6689 C   0  0  0  0  0  0  0  0  0  0  0  0
   11.5749   -3.5963   23.6258 C   0  0  0  0  0  0  0  0  0  0  0  0
    5.2471   -8.9210   16.5108 C   0  0  0  0  0  0  0  0  0  0  0  0
   11.9212   -4.9330   21.7920 C   0  0  0  0  0  0  0  0  0  0  0  0
   11.1562   -4.0073   22.4527 C   0  0  0  0  0  0  0  0  0  0  0  0
    6.5811   -8.7092   15.9475 N   0  0  0  0  0  0  0  0  0  0  0  0
    2.8764   -9.3787   16.2507 C   0  0  0  0  0  0  0  0  0  0  0  0
    0.5405  -10.6798   16.8901 C   0  0  0  0  0  0  0  0  0  0  0  0
    9.5175   -6.1957   17.8119 C   0  0  0  0  0  0  0  0  0  0  0  0
    7.7493   -6.5360   16.1171 C   0  0  0  0  0  0  0  0  0  0  0  0
   10.6815   -4.0239   18.0057 N   0  0  0  0  0  0  0  0  0  0  0  0
    6.7892   -7.1383   16.4182 C   0  0  0  0  0  0  0  0  0  0  0  0
   -0.1114  -10.9246   16.7797 N   0  0  0  0  0  0  0  0  0  0  0  0
   -0.1930  -11.4389   18.4208 C   0  0  0  0  0  0  0  0  0  0  0  0
   11.2098   -5.7416   19.6923 O   0  0  0  0  0  0  0  0  0  0  0  0
   10.4636   -5.3051   18.4616 C   0  0  0  0  0  0  0  0  0  0  0  0
    1.3486  -11.1500   19.1795 C   0  0  0  0  0  0  0  0  0  0  0  0
   -0.3440  -12.3958   21.8973 C   0  0  0  0  0  0  0  0  0  0  0  0
   13.1067   -5.3187   22.2718 C   0  0  0  0  0  0  0  0  0  0  0  0
    9.1112   -4.4989   16.3022 C   0  0  0  0  0  0  0  0  0  0  0  0
    7.5410   -8.4051   15.8355 C   0  0  0  0  0  0  0  0  0  0  0  0
   12.8464   -3.9424   24.0823 C   0  0  0  0  0  0  0  0  0  0  0  0
    2.8212   -9.9623   17.4512 C   0  0  0  0  0  0  0  0  0  0  0  0
    4.1649   -8.8335   15.7853 C   0  0  0  0  0  0  0  0  0  0  0  0
    8.8456   -5.7447   16.7896 C   0  0  0  0  0  0  0  0  0  0  0  0
   -0.1863  -12.0203   20.5728 C   0  0  0  0  0  0  0  0  0  0  0  0
   -0.7734  -11.8847   19.3605 N   0  0  0  0  0  0  0  0  0  0  0  0
   10.0612   -3.6628   16.8400 C   0  0  0  0  0  0  0  0  0  0  0  0
    1.3345  -11.4042   20.3713 N   0  0  0  0  0  0  0  0  0  0  0  0
   11.3235   -5.3804   20.6620 C   0  0  0  0  0  0  0  0  0  0  0  0
  1 23  4  0
  1 26  4  0
  2 12  4  0
  2 21  4  0
  2 27  1  0
  3 13  1  0
  4  5  4  0
  4 27  4  0
  5  7  4  0
  6  9  4  0
  6 26  4  0
  7 10  1  0
  7 28  4  0
  8  9  4  0
  8 23  4  0
  8 34  1  0
 10 25  1  0
 11 27  4  0
 11 28  4  0
 12 17  4  0
 13 20  4  0
 13 29  4  0
 14 16  1  0
 14 29  1  0
 15 20  4  0
 15 32  4  0
 17 18  4  0
 18 31  4  0
 19 20  1  0
 19 34  1  0
 21 33  4  0
 22 30  1  0
 24 29  4  0
 24 32  4  0
 30 31  4  0
 30 33  4  0
M  END
$$$$

 Created by Python create_sdf_string function

 34 72  0  0  0  0  0  0  0  0999 V2000
   13.8260   -4.1533   23.6377 C   0  0  0  0  0  0  0  0  0  0  0  0
    1.3024  -12.0034   17.4234 N   0  0  0  0  0  0  0  0  0  0  0  0
    3.6329  -10.5876   18.3420 N   0  0  0  0  0  0  0  0  0  0  0  0
    5.9895   -9.6508   17.1296 C   0  0  0  0  0  0  0  0  0  0  0  0
   11.4140   -3.4273   23.2037 O   0  0  0  0  0  0  0  0  0  0  0  0
   11.7049   -5.4489   21.7536 C   0  0  0  0  0  0  0  0  0  0  0  0
    7.1938   -8.5645   16.6332 N   0  0  0  0  0  0  0  0  0  0  0  0
    2.4922   -9.0072   16.2178 O   0  0  0  0  0  0  0  0  0  0  0  0
    0.1291  -10.8531   16.5660 C   0  0  0  0  0  0  0  0  0  0  0  0
    9.4614   -6.0352   17.8077 C   0  0  0  0  0  0  0  0  0  0  0  0
    8.2187   -6.4569   15.6572 C   0  0  0  0  0  0  0  0  0  0  0  0
   10.3071   -4.7031   17.9531 N   0  0  0  0  0  0  0  0  0  0  0  0
    6.6061   -6.9758   15.9255 C   0  0  0  0  0  0  0  0  0  0  0  0
   -0.4581  -12.0419   18.4987 N   0  0  0  0  0  0  0  0  0  0  0  0
   11.3743   -5.3099   19.8749 O   0  0  0  0  0  0  0  0  0  0  0  0
   10.5357   -5.4850   18.3007 C   0  0  0  0  0  0  0  0  0  0  0  0
    1.1611  -11.1602   19.0766 C   0  0  0  0  0  0  0  0  0  0  0  0
   -0.4968  -12.4061   22.0753 C   0  0  0  0  0  0  0  0  0  0  0  0
   12.9136   -5.0930   21.9104 C   0  0  0  0  0  0  0  0  0  0  0  0
    7.0985   -8.5014   15.1668 P   0  0  0  0  0  0  0  0  0  0  0  0
   13.1971   -4.8924   23.8349 C   0  0  0  0  0  0  0  0  0  0  0  0
    2.4113  -10.2064   17.3697 C   0  0  0  0  0  0  0  0  0  0  0  0
    4.7136   -8.9288   16.2683 O   0  0  0  0  0  0  0  0  0  0  0  0
    8.1232   -6.8668   16.7132 C   0  0  0  0  0  0  0  0  0  0  0  0
    0.1928  -12.2816   20.6523 C   0  0  0  0  0  0  0  0  0  0  0  0
   -0.9932  -12.0592   18.9816 N   0  0  0  0  0  0  0  0  0  0  0  0
   11.8050   -5.5191   20.6398 C   0  0  0  0  0  0  0  0  0  0  0  0
    9.4519   -7.3823   18.0139 He  0  0  0  0  0  0  0  0  0  0  0  0
    5.2525   -8.8701   16.6078 He  0  0  0  0  0  0  0  0  0  0  0  0
   11.1668   -4.1414   22.7333 He  0  0  0  0  0  0  0  0  0  0  0  0
    0.0921  -10.5707   16.8025 He  0  0  0  0  0  0  0  0  0  0  0  0
    9.5214   -4.4519   16.1972 He  0  0  0  0  0  0  0  0  0  0  0  0
    9.8700   -3.1514   17.5963 He  0  0  0  0  0  0  0  0  0  0  0  0
    1.4795  -10.6100   20.2158 He  0  0  0  0  0  0  0  0  0  0  0  0
  1  7  1  0
  1 11  4  0
  1 19  4  0
  1 21  4  0
  1 26  4  0
  2  4  4  0
  2 15  4  0
  2 17  4  0
  2 19  2  0
  2 20  1  0
  2 22  1  0
  3  4  4  0
  3 22  4  0
  4  9  4  0
  4 15  4  0
  4 20  2  0
  5  6  4  0
  5 17  4  0
  5 23  4  0
  6  7  3  0
  6 11  2  0
  6 16  2  0
  6 19  4  0
  6 20  3  0
  6 21  3  0
  7 19  1  0
  7 20  1  0
  8 10  3  0
  8 11  2  0
  8 22  3  0
  8 23  4  0
  9 16  3  0
  9 22  3  0
  9 25  2  0
 10 15  2  0
 10 16  4  0
 10 21  1  0
 10 22  2  0
 10 24  4  0
 11 12  4  0
 11 13  1  0
 11 16  3  0
 12 16  4  0
 12 18  4  0
 12 20  1  0
 12 26  3  0
 13 26  2  0
 14 16  3  0
 14 19  4  0
 15 16  2  0
 15 17  4  0
 15 19  3  0
 15 25  4  0
 15 27  1  0
 16 18  1  0
 16 20  3  0
 16 22  2  0
 16 25  2  0
 17 19  3  0
 17 20  2  0
 17 23  3  0
 18 24  2  0
 18 25  1  0
 19 22  1  0
 19 23  3  0
 19 26  3  0
 20 21  4  0
 20 26  3  0
 20 27  3  0
 21 23  1  0
 21 25  2  0
 24 26  2  0
M  END
$$$$

 Created by Python create_sdf_string function

 34 37  0  0  0  0  0  0  0  0999 V2000
   13.6295   -4.7326   23.3779 C   0  0  0  0  0  0  0  0  0  0  0  0
    1.6282  -10.5580   17.8190 N   0  0  0  0  0  0  0  0  0  0  0  0
    9.3317   -7.4625   18.2060 C   0  0  0  0  0  0  0  0  0  0  0  0
    4.0144  -10.4653   18.1100 N   0  0  0  0  0  0  0  0  0  0  0  0
    5.1888   -9.8799   17.6753 C   0  0  0  0  0  0  0  0  0  0  0  0
   11.5959   -3.8571   23.7053 C   0  0  0  0  0  0  0  0  0  0  0  0
    5.2575   -8.9940   16.7244 C   0  0  0  0  0  0  0  0  0  0  0  0
   11.9392   -4.8670   21.6968 C   0  0  0  0  0  0  0  0  0  0  0  0
   11.1409   -4.1117   22.4788 C   0  0  0  0  0  0  0  0  0  0  0  0
    6.5249   -8.4277   16.3683 N   0  0  0  0  0  0  0  0  0  0  0  0
    2.9879   -9.1787   16.3674 C   0  0  0  0  0  0  0  0  0  0  0  0
    0.4335  -10.6656   16.7103 C   0  0  0  0  0  0  0  0  0  0  0  0
    9.5585   -6.1644   17.8086 C   0  0  0  0  0  0  0  0  0  0  0  0
    8.0411   -6.4800   15.8783 C   0  0  0  0  0  0  0  0  0  0  0  0
   10.5378   -4.0511   18.0691 N   0  0  0  0  0  0  0  0  0  0  0  0
    6.7995   -7.0802   16.3009 C   0  0  0  0  0  0  0  0  0  0  0  0
   -0.2378  -11.3439   17.6692 C   0  0  0  0  0  0  0  0  0  0  0  0
   -0.4314  -11.6690   18.5261 N   0  0  0  0  0  0  0  0  0  0  0  0
   11.0128   -5.7258   19.7807 O   0  0  0  0  0  0  0  0  0  0  0  0
   10.3510   -5.3106   18.5070 C   0  0  0  0  0  0  0  0  0  0  0  0
    1.4004  -11.1091   18.8839 C   0  0  0  0  0  0  0  0  0  0  0  0
   -0.3462  -12.3526   21.9066 C   0  0  0  0  0  0  0  0  0  0  0  0
   13.1432   -5.1475   22.1709 C   0  0  0  0  0  0  0  0  0  0  0  0
    9.1953   -4.4583   16.2324 N   0  0  0  0  0  0  0  0  0  0  0  0
    7.3106   -9.0102   15.5629 C   0  0  0  0  0  0  0  0  0  0  0  0
   12.7958   -4.0765   24.0483 C   0  0  0  0  0  0  0  0  0  0  0  0
    2.8627  -10.0426   17.3821 C   0  0  0  0  0  0  0  0  0  0  0  0
    4.1379   -8.6560   16.0741 C   0  0  0  0  0  0  0  0  0  0  0  0
    8.9391   -5.6976   16.6551 C   0  0  0  0  0  0  0  0  0  0  0  0
    0.0378  -11.9960   20.5815 C   0  0  0  0  0  0  0  0  0  0  0  0
   -0.8513  -12.0972   19.6049 N   0  0  0  0  0  0  0  0  0  0  0  0
   10.0840   -3.6587   16.8800 C   0  0  0  0  0  0  0  0  0  0  0  0
    1.2894  -11.5164   20.1755 N   0  0  0  0  0  0  0  0  0  0  0  0
   11.4464   -5.2223   20.5913 C   0  0  0  0  0  0  0  0  0  0  0  0
  1 23  4  0
  1 26  4  0
  2 12  4  0
  2 21  4  0
  2 27  1  0
  3 13  1  0
  4  5  4  0
  4 27  4  0
  5  7  4  0
  6  9  4  0
  6 26  4  0
  7 10  1  0
  7 28  4  0
  8  9  4  0
  8 23  4  0
  8 34  1  0
 10 16  1  0
 10 25  1  0
 11 27  4  0
 11 28  4  0
 12 17  4  0
 13 20  4  0
 13 29  4  0
 14 16  1  0
 14 29  1  0
 15 20  4  0
 15 32  4  0
 17 18  4  0
 18 31  4  0
 19 20  1  0
 19 34  1  0
 21 33  4  0
 22 30  1  0
 24 29  4  0
 24 32  4  0
 30 31  4  0
 30 33  4  0
M  END
$$$$

 Created by Python create_sdf_string function

 34 79  0  0  0  0  0  0  0  0999 V2000
   13.0587   -5.2820   23.4261 C   0  0  0  0  0  0  0  0  0  0  0  0
    1.1189  -10.8271   18.1338 N   0  0  0  0  0  0  0  0  0  0  0  0
    9.3701   -7.8489   17.8437 C   0  0  0  0  0  0  0  0  0  0  0  0
   11.6198   -4.9450   23.6934 C   0  0  0  0  0  0  0  0  0  0  0  0
    5.1807   -8.9410   16.9873 N   0  0  0  0  0  0  0  0  0  0  0  0
   12.1057   -5.0604   22.3766 C   0  0  0  0  0  0  0  0  0  0  0  0
   11.8585   -4.3352   22.1728 C   0  0  0  0  0  0  0  0  0  0  0  0
    6.6135   -8.4804   16.5989 N   0  0  0  0  0  0  0  0  0  0  0  0
    2.9115   -9.2185   16.4501 F   0  0  0  0  0  0  0  0  0  0  0  0
    9.2805   -5.6854   18.1640 C   0  0  0  0  0  0  0  0  0  0  0  0
    8.7255   -5.7833   15.8883 F   0  0  0  0  0  0  0  0  0  0  0  0
   10.6627   -4.2944   17.8667 N   0  0  0  0  0  0  0  0  0  0  0  0
    7.2258   -6.9659   16.8937 C   0  0  0  0  0  0  0  0  0  0  0  0
   -0.1422  -11.0369   17.8641 C   0  0  0  0  0  0  0  0  0  0  0  0
   11.7131   -6.0718   19.2348 O   0  0  0  0  0  0  0  0  0  0  0  0
   10.5256   -5.3679   18.7306 C   0  0  0  0  0  0  0  0  0  0  0  0
   -0.8335  -12.4278   21.6496 C   0  0  0  0  0  0  0  0  0  0  0  0
   13.1632   -5.6518   22.4042 O   0  0  0  0  0  0  0  0  0  0  0  0
    9.8359   -4.4244   15.6776 N   0  0  0  0  0  0  0  0  0  0  0  0
    7.2171   -8.8659   15.7625 C   0  0  0  0  0  0  0  0  0  0  0  0
   12.6518   -4.1999   24.1578 C   0  0  0  0  0  0  0  0  0  0  0  0
    2.1337  -10.2539   17.6798 C   0  0  0  0  0  0  0  0  0  0  0  0
    8.9417   -5.8812   16.7536 C   0  0  0  0  0  0  0  0  0  0  0  0
    0.2488  -12.1093   20.3663 C   0  0  0  0  0  0  0  0  0  0  0  0
   -1.1353  -12.3615   19.5422 N   0  0  0  0  0  0  0  0  0  0  0  0
    9.2980   -2.9293   17.1457 C   0  0  0  0  0  0  0  0  0  0  0  0
    1.3255  -11.6499   19.8337 N   0  0  0  0  0  0  0  0  0  0  0  0
   11.9798   -5.1271   20.1860 C   0  0  0  0  0  0  0  0  0  0  0  0
    3.6567  -10.1006   18.1137 He  0  0  0  0  0  0  0  0  0  0  0  0
    5.0821  -10.0139   18.1470 He  0  0  0  0  0  0  0  0  0  0  0  0
    0.0501  -10.8264   16.4534 He  0  0  0  0  0  0  0  0  0  0  0  0
   -0.5567  -11.6562   18.7814 He  0  0  0  0  0  0  0  0  0  0  0  0
    1.2523  -11.1305   18.4833 He  0  0  0  0  0  0  0  0  0  0  0  0
    4.2685   -8.9180   16.7988 He  0  0  0  0  0  0  0  0  0  0  0  0
  1  9  2  0
  1 18  4  0
  1 21  4  0
  2  9  2  0
  2 17  1  0
  2 21  3  0
  2 22  1  0
  2 25  3  0
  2 28  1  0
  3  9  1  0
  3 10  2  0
  3 15  2  0
  4  7  4  0
  4  9  4  0
  4 21  4  0
  4 23  2  0
  4 27  4  0
  5  8  1  0
  5 10  1  0
  5 17  2  0
  6  7  4  0
  6 10  4  0
  6 12  3  0
  6 13  2  0
  6 18  4  0
  6 20  1  0
  6 28  1  0
  7 12  2  0
  7 18  2  0
  7 23  4  0
  8 13  1  0
  8 16  1  0
  8 19  3  0
  8 20  3  0
  8 24  3  0
  8 28  1  0
  9 10  2  0
  9 14  4  0
  9 22  1  0
  9 27  2  0
 10 13  2  0
 10 16  4  0
 10 18  4  0
 10 21  1  0
 10 27  1  0
 11 13  2  0
 11 23  1  0
 12 14  4  0
 12 18  1  0
 12 26  4  0
 12 27  3  0
 13 17  3  0
 13 22  1  0
 13 24  3  0
 14 16  2  0
 14 19  2  0
 14 23  1  0
 14 26  3  0
 14 28  2  0
 15 16  1  0
 15 20  3  0
 15 23  4  0
 16 19  1  0
 16 23  2  0
 17 18  2  0
 17 19  1  0
 17 24  1  0
 17 27  4  0
 18 19  3  0
 18 22  1  0
 18 23  2  0
 19 23  4  0
 19 24  1  0
 19 26  4  0
 19 27  1  0
 21 25  3  0
 22 24  2  0
 24 25  4  0
 24 27  1  0
M  END
$$$$

 Created by Python create_sdf_string function

 34 38  0  0  0  0  0  0  0  0999 V2000
   13.4786   -5.3259   23.4821 C   0  0  0  0  0  0  0  0  0  0  0  0
    1.4422  -10.6481   17.8192 N   0  0  0  0  0  0  0  0  0  0  0  0
    9.4383   -7.4760   18.2436 C   0  0  0  0  0  0  0  0  0  0  0  0
    3.8996  -10.3746   18.2631 C   0  0  0  0  0  0  0  0  0  0  0  0
    5.0419   -9.7705   18.0078 C   0  0  0  0  0  0  0  0  0  0  0  0
   11.3908   -4.1882   23.7207 C   0  0  0  0  0  0  0  0  0  0  0  0
    5.2049   -8.9148   17.0355 C   0  0  0  0  0  0  0  0  0  0  0  0
   12.1726   -4.9675   21.6436 C   0  0  0  0  0  0  0  0  0  0  0  0
   11.2245   -4.4076   22.3910 C   0  0  0  0  0  0  0  0  0  0  0  0
    6.4953   -8.3263   16.6985 N   0  0  0  0  0  0  0  0  0  0  0  0
    2.9374   -9.1855   16.5381 C   0  0  0  0  0  0  0  0  0  0  0  0
    0.3922  -10.5900   16.8631 N   0  0  0  0  0  0  0  0  0  0  0  0
    9.7002   -6.1292   17.7927 C   0  0  0  0  0  0  0  0  0  0  0  0
    8.0308   -6.3969   16.0993 C   0  0  0  0  0  0  0  0  0  0  0  0
   10.6401   -3.8967   18.0245 N   0  0  0  0  0  0  0  0  0  0  0  0
    7.0130   -6.9626   16.8311 C   0  0  0  0  0  0  0  0  0  0  0  0
   -0.6890  -11.2322   17.3353 C   0  0  0  0  0  0  0  0  0  0  0  0
   -0.5227  -11.6546   18.5276 C   0  0  0  0  0  0  0  0  0  0  0  0
   11.3106   -5.7217   19.5799 O   0  0  0  0  0  0  0  0  0  0  0  0
   10.5773   -5.2243   18.3973 C   0  0  0  0  0  0  0  0  0  0  0  0
    1.0224  -11.2657   18.8873 C   0  0  0  0  0  0  0  0  0  0  0  0
   -0.3590  -12.5147   21.7357 C   0  0  0  0  0  0  0  0  0  0  0  0
   13.3217   -5.4068   22.2036 C   0  0  0  0  0  0  0  0  0  0  0  0
    9.3218   -4.3372   16.2175 N   0  0  0  0  0  0  0  0  0  0  0  0
    7.2101   -8.9394   15.7792 C   0  0  0  0  0  0  0  0  0  0  0  0
   12.5295   -4.6975   24.2577 C   0  0  0  0  0  0  0  0  0  0  0  0
    2.7371  -10.1141   17.5535 C   0  0  0  0  0  0  0  0  0  0  0  0
    4.0826   -8.6216   16.3165 C   0  0  0  0  0  0  0  0  0  0  0  0
    9.0092   -5.5695   16.6915 C   0  0  0  0  0  0  0  0  0  0  0  0
   -0.0449  -12.1337   20.4787 C   0  0  0  0  0  0  0  0  0  0  0  0
   -1.1033  -12.2255   19.5717 N   0  0  0  0  0  0  0  0  0  0  0  0
   10.1671   -3.5180   16.8322 C   0  0  0  0  0  0  0  0  0  0  0  0
    1.2279  -11.6479   20.1095 N   0  0  0  0  0  0  0  0  0  0  0  0
   12.0789   -4.9692   20.1990 C   0  0  0  0  0  0  0  0  0  0  0  0
  1 23  4  0
  1 26  4  0
  2 12  4  0
  2 21  4  0
  2 27  1  0
  3 13  1  0
  4  5  4  0
  4 27  4  0
  5  7  4  0
  6  9  4  0
  6 26  4  0
  7 10  1  0
  7 28  4  0
  8  9  4  0
  8 23  4  0
  8 34  1  0
 10 16  1  0
 10 25  1  0
 11 27  4  0
 11 28  4  0
 12 17  4  0
 13 20  4  0
 13 29  4  0
 14 16  2  0
 14 29  1  0
 15 20  4  0
 15 32  4  0
 17 18  4  0
 18 21  4  0
 18 31  4  0
 19 20  1  0
 19 34  1  0
 21 33  4  0
 22 30  1  0
 24 29  4  0
 24 32  4  0
 30 31  4  0
 30 33  4  0
M  END
$$$$

 Created by Python create_sdf_string function

 34 66  0  0  0  0  0  0  0  0999 V2000
   13.9930   -5.2022   23.6134 C   0  0  0  0  0  0  0  0  0  0  0  0
    0.9332  -10.8938   17.2021 N   0  0  0  0  0  0  0  0  0  0  0  0
    9.5238   -7.4390   18.2574 C   0  0  0  0  0  0  0  0  0  0  0  0
    5.8609   -9.3699   17.7535 C   0  0  0  0  0  0  0  0  0  0  0  0
   11.7628   -3.9314   24.0030 P   0  0  0  0  0  0  0  0  0  0  0  0
    5.5628   -9.3525   16.4512 C   0  0  0  0  0  0  0  0  0  0  0  0
   12.5389   -4.6823   22.4379 C   0  0  0  0  0  0  0  0  0  0  0  0
   11.1755   -4.1795   21.9643 C   0  0  0  0  0  0  0  0  0  0  0  0
    3.0294   -9.1457   16.9150 C   0  0  0  0  0  0  0  0  0  0  0  0
    0.0764  -10.5778   16.5908 P   0  0  0  0  0  0  0  0  0  0  0  0
    9.7439   -6.1507   17.9039 O   0  0  0  0  0  0  0  0  0  0  0  0
    8.0141   -6.6115   16.4067 C   0  0  0  0  0  0  0  0  0  0  0  0
   10.0129   -4.0307   18.3087 N   0  0  0  0  0  0  0  0  0  0  0  0
   -0.3205  -11.0764   16.9151 C   0  0  0  0  0  0  0  0  0  0  0  0
   -0.6306  -11.8281   18.4139 C   0  0  0  0  0  0  0  0  0  0  0  0
   10.8623   -6.1156   19.7901 O   0  0  0  0  0  0  0  0  0  0  0  0
   10.6370   -5.3602   18.2397 C   0  0  0  0  0  0  0  0  0  0  0  0
   -0.4449  -12.4771   20.9583 C   0  0  0  0  0  0  0  0  0  0  0  0
    8.8655   -4.7615   16.2948 N   0  0  0  0  0  0  0  0  0  0  0  0
   12.7524   -4.2960   23.8027 C   0  0  0  0  0  0  0  0  0  0  0  0
    3.7961   -8.7072   16.6852 C   0  0  0  0  0  0  0  0  0  0  0  0
    8.7298   -5.1452   16.3892 C   0  0  0  0  0  0  0  0  0  0  0  0
   -0.2523  -12.3596   20.7486 C   0  0  0  0  0  0  0  0  0  0  0  0
   -1.0223  -12.3446   19.7966 N   0  0  0  0  0  0  0  0  0  0  0  0
    0.9164  -12.0999   20.1378 N   0  0  0  0  0  0  0  0  0  0  0  0
   11.9233   -4.8532   20.3722 Cl  0  0  0  0  0  0  0  0  0  0  0  0
    4.4838  -10.3670   18.2958 He  0  0  0  0  0  0  0  0  0  0  0  0
    6.0898   -8.2450   16.5498 He  0  0  0  0  0  0  0  0  0  0  0  0
    6.9615   -6.7332   16.3039 He  0  0  0  0  0  0  0  0  0  0  0  0
    1.4102  -11.3139   19.1858 He  0  0  0  0  0  0  0  0  0  0  0  0
   13.3824   -5.6273   22.3216 He  0  0  0  0  0  0  0  0  0  0  0  0
    6.3708   -9.2460   15.8191 He  0  0  0  0  0  0  0  0  0  0  0  0
    2.3394   -9.8675   17.4800 He  0  0  0  0  0  0  0  0  0  0  0  0
   10.4174   -3.7014   17.3244 He  0  0  0  0  0  0  0  0  0  0  0  0
  1 18  4  0
  1 19  2  0
  1 20  4  0
  1 22  4  0
  1 26  4  0
  2  7  3  0
  2 10  4  0
  2 12  1  0
  2 21  4  0
  3  6  2  0
  3  7  2  0
  3 11  2  0
  3 13  2  0
  3 23  3  0
  3 24  2  0
  3 25  1  0
  4  6  4  0
  4 17  4  0
  5  7  3  0
  5  8  4  0
  5  9  4  0
  5 12  4  0
  5 16  4  0
  5 17  3  0
  5 20  4  0
  6  7  1  0
  6 19  4  0
  6 21  4  0
  6 22  4  0
  6 24  1  0
  7 23  2  0
  7 26  1  0
  8 17  2  0
  8 18  3  0
  8 22  4  0
  8 24  3  0
  9 17  4  0
  9 21  4  0
  9 24  3  0
 10 14  4  0
 10 23  4  0
 11 17  4  0
 11 20  1  0
 12 13  2  0
 12 14  3  0
 12 15  4  0
 12 22  1  0
 13 20  2  0
 15 21  2  0
 15 22  2  0
 15 24  4  0
 16 17  1  0
 16 18  2  0
 16 20  4  0
 16 23  2  0
 18 20  2  0
 18 21  2  0
 19 25  4  0
 20 22  3  0
 21 23  1  0
 21 24  3  0
 21 26  1  0
 22 24  4  0
 22 26  3  0
 23 24  3  0
 23 25  4  0
M  END
$$$$

 Created by Python create_sdf_string function

 34 38  0  0  0  0  0  0  0  0999 V2000
   13.6571   -5.0604   23.4988 C   0  0  0  0  0  0  0  0  0  0  0  0
    1.2526  -10.5842   17.6672 N   0  0  0  0  0  0  0  0  0  0  0  0
    9.5753   -7.5732   18.2748 C   0  0  0  0  0  0  0  0  0  0  0  0
    4.1738  -10.2681   18.2929 N   0  0  0  0  0  0  0  0  0  0  0  0
    5.2640   -9.6541   17.8779 N   0  0  0  0  0  0  0  0  0  0  0  0
   11.6217   -3.9130   23.8273 C   0  0  0  0  0  0  0  0  0  0  0  0
    5.1816   -8.8595   16.8559 C   0  0  0  0  0  0  0  0  0  0  0  0
   12.1775   -4.8433   21.7402 C   0  0  0  0  0  0  0  0  0  0  0  0
   11.2742   -4.1660   22.4987 C   0  0  0  0  0  0  0  0  0  0  0  0
    6.2459   -8.1941   16.1981 C   0  0  0  0  0  0  0  0  0  0  0  0
    3.1484   -9.5015   17.1329 C   0  0  0  0  0  0  0  0  0  0  0  0
    0.3497  -10.6476   16.7248 N   0  0  0  0  0  0  0  0  0  0  0  0
    9.5969   -6.1383   17.9116 C   0  0  0  0  0  0  0  0  0  0  0  0
    7.9869   -6.5226   16.0856 C   0  0  0  0  0  0  0  0  0  0  0  0
   10.5783   -3.9684   18.1197 N   0  0  0  0  0  0  0  0  0  0  0  0
    6.8419   -7.0601   16.6149 C   0  0  0  0  0  0  0  0  0  0  0  0
   -0.6800  -11.3500   17.2308 C   0  0  0  0  0  0  0  0  0  0  0  0
   -0.4087  -11.7133   18.4945 C   0  0  0  0  0  0  0  0  0  0  0  0
   10.9965   -5.6815   19.8529 O   0  0  0  0  0  0  0  0  0  0  0  0
   10.3902   -5.2151   18.6002 C   0  0  0  0  0  0  0  0  0  0  0  0
    0.8581  -11.3310   18.8467 C   0  0  0  0  0  0  0  0  0  0  0  0
   -0.3937  -12.6875   21.4069 C   0  0  0  0  0  0  0  0  0  0  0  0
   13.3496   -5.3252   22.2602 C   0  0  0  0  0  0  0  0  0  0  0  0
    9.2311   -4.4380   16.3389 N   0  0  0  0  0  0  0  0  0  0  0  0
    6.8581   -9.0880   15.5315 O   0  0  0  0  0  0  0  0  0  0  0  0
   12.7830   -4.3468   24.2934 C   0  0  0  0  0  0  0  0  0  0  0  0
    2.4899   -9.9956   17.5755 C   0  0  0  0  0  0  0  0  0  0  0  0
    3.7893   -8.7222   16.4953 C   0  0  0  0  0  0  0  0  0  0  0  0
    8.9512   -5.6802   16.7590 C   0  0  0  0  0  0  0  0  0  0  0  0
   -0.0618  -12.3140   20.5438 C   0  0  0  0  0  0  0  0  0  0  0  0
   -1.0898  -12.3423   19.4774 N   0  0  0  0  0  0  0  0  0  0  0  0
    9.9961   -3.6137   16.9609 C   0  0  0  0  0  0  0  0  0  0  0  0
    1.1417  -11.7467   20.1461 N   0  0  0  0  0  0  0  0  0  0  0  0
   11.9723   -4.9559   20.3036 C   0  0  0  0  0  0  0  0  0  0  0  0
  1 23  4  0
  1 26  4  0
  2 12  4  0
  2 21  4  0
  2 27  1  0
  3 13  1  0
  4  5  4  0
  4 11  4  0
  5  7  4  0
  6  9  4  0
  6 26  4  0
  7 10  1  0
  7 28  4  0
  8  9  4  0
  8 23  4  0
  8 34  1  0
 10 16  1  0
 10 25  1  0
 11 27  4  0
 11 28  4  0
 12 17  4  0
 13 20  4  0
 13 29  4  0
 14 16  2  0
 14 29  1  0
 15 20  4  0
 15 32  4  0
 17 18  4  0
 18 21  4  0
 18 31  4  0
 19 20  1  0
 19 34  1  0
 21 33  4  0
 22 30  4  0
 24 29  4  0
 24 32  4  0
 30 31  4  0
 30 33  4  0
M  END
$$$$

 Created by Python create_sdf_string function

 34 60  0  0  0  0  0  0  0  0999 V2000
   13.2051   -5.4150   23.4497 C   0  0  0  0  0  0  0  0  0  0  0  0
    1.1987  -10.0912   17.0717 N   0  0  0  0  0  0  0  0  0  0  0  0
    9.1366   -8.1514   17.8937 C   0  0  0  0  0  0  0  0  0  0  0  0
    4.5599  -10.1601   18.2202 Cl  0  0  0  0  0  0  0  0  0  0  0  0
    5.9786   -9.4416   17.8734 N   0  0  0  0  0  0  0  0  0  0  0  0
   11.5890   -3.3614   23.7051 C   0  0  0  0  0  0  0  0  0  0  0  0
    5.6560   -8.3412   16.1453 C   0  0  0  0  0  0  0  0  0  0  0  0
   11.8884   -4.3316   21.8429 C   0  0  0  0  0  0  0  0  0  0  0  0
   10.9104   -4.3038   22.4797 C   0  0  0  0  0  0  0  0  0  0  0  0
    5.6167   -8.0281   16.3165 C   0  0  0  0  0  0  0  0  0  0  0  0
    3.2527   -9.6520   16.7839 C   0  0  0  0  0  0  0  0  0  0  0  0
    9.4132   -6.1008   17.8964 C   0  0  0  0  0  0  0  0  0  0  0  0
    8.4288   -6.4817   16.1751 C   0  0  0  0  0  0  0  0  0  0  0  0
   10.3755   -3.9166   18.6189 N   0  0  0  0  0  0  0  0  0  0  0  0
    6.3092   -6.9547   16.3692 C   0  0  0  0  0  0  0  0  0  0  0  0
   -0.5904  -11.7598   17.5645 C   0  0  0  0  0  0  0  0  0  0  0  0
    0.2131  -12.0942   18.9414 C   0  0  0  0  0  0  0  0  0  0  0  0
   10.6589   -5.5892   19.3676 O   0  0  0  0  0  0  0  0  0  0  0  0
    0.7432  -11.5970   18.9035 C   0  0  0  0  0  0  0  0  0  0  0  0
   -0.5664  -13.1446   20.9649 C   0  0  0  0  0  0  0  0  0  0  0  0
   13.4742   -5.4324   22.1596 C   0  0  0  0  0  0  0  0  0  0  0  0
    9.7671   -4.3185   15.7237 N   0  0  0  0  0  0  0  0  0  0  0  0
    7.0245   -8.6844   16.0379 O   0  0  0  0  0  0  0  0  0  0  0  0
   13.2145   -4.0836   24.2655 C   0  0  0  0  0  0  0  0  0  0  0  0
    1.8717  -10.6209   17.4879 C   0  0  0  0  0  0  0  0  0  0  0  0
    4.0633   -8.9038   15.8728 C   0  0  0  0  0  0  0  0  0  0  0  0
    9.9031   -3.3956   17.3049 C   0  0  0  0  0  0  0  0  0  0  0  0
   12.3048   -5.2580   20.6509 C   0  0  0  0  0  0  0  0  0  0  0  0
    0.4453  -10.9649   16.7180 He  0  0  0  0  0  0  0  0  0  0  0  0
   10.0525   -5.0725   18.9448 He  0  0  0  0  0  0  0  0  0  0  0  0
    8.8311   -5.6047   15.8383 He  0  0  0  0  0  0  0  0  0  0  0  0
    0.3945  -12.0360   20.6385 He  0  0  0  0  0  0  0  0  0  0  0  0
   -1.1112  -11.6654   19.4020 He  0  0  0  0  0  0  0  0  0  0  0  0
    0.7474  -11.9783   20.0037 He  0  0  0  0  0  0  0  0  0  0  0  0
  1 10  1  0
  1 18  1  0
  1 21  4  0
  1 24  4  0
  2  6  2  0
  2 13  1  0
  2 16  1  0
  2 19  4  0
  2 25  1  0
  3  8  2  0
  3 11  4  0
  3 12  1  0
  3 14  1  0
  3 15  4  0
  4  5  4  0
  4  6  3  0
  4  8  4  0
  4  9  1  0
  4 11  4  0
  4 22  4  0
  6  9  4  0
  6 12  3  0
  6 15  2  0
  6 22  3  0
  6 24  4  0
  7 10  1  0
  7 22  1  0
  7 26  4  0
  8  9  4  0
  8 10  3  0
  8 15  2  0
  8 21  4  0
  8 27  2  0
  8 28  1  0
  9 10  2  0
  9 14  1  0
  9 15  1  0
  9 27  2  0
  9 28  3  0
 10 15  1  0
 10 23  1  0
 10 27  4  0
 11 20  1  0
 11 22  1  0
 11 25  4  0
 11 26  4  0
 13 15  2  0
 13 21  2  0
 13 25  4  0
 14 24  3  0
 14 27  4  0
 15 20  2  0
 15 22  2  0
 15 25  1  0
 16 17  3  0
 18 19  2  0
 20 21  4  0
 20 25  4  0
 22 27  4  0
 24 27  3  0
M  END
$$$$

 Created by Python create_sdf_string function

 34 38  0  0  0  0  0  0  0  0999 V2000
   13.5233   -5.0363   23.4264 C   0  0  0  0  0  0  0  0  0  0  0  0
    1.3273  -10.6073   17.4603 N   0  0  0  0  0  0  0  0  0  0  0  0
    9.1987   -7.6370   18.2315 C   0  0  0  0  0  0  0  0  0  0  0  0
    4.2875  -10.0894   18.0721 N   0  0  0  0  0  0  0  0  0  0  0  0
    5.4715   -9.4544   17.8270 N   0  0  0  0  0  0  0  0  0  0  0  0
   11.5100   -3.6736   23.6464 C   0  0  0  0  0  0  0  0  0  0  0  0
    5.2635   -8.7281   16.6493 C   0  0  0  0  0  0  0  0  0  0  0  0
   11.9980   -4.7981   21.6070 C   0  0  0  0  0  0  0  0  0  0  0  0
   11.2023   -3.9392   22.3437 C   0  0  0  0  0  0  0  0  0  0  0  0
    6.2438   -7.9886   16.0118 C   0  0  0  0  0  0  0  0  0  0  0  0
    3.3607   -9.7055   17.1535 C   0  0  0  0  0  0  0  0  0  0  0  0
    0.3875  -10.8236   16.5830 N   0  0  0  0  0  0  0  0  0  0  0  0
    9.4869   -6.1259   17.8750 C   0  0  0  0  0  0  0  0  0  0  0  0
    7.8895   -6.4076   16.0474 C   0  0  0  0  0  0  0  0  0  0  0  0
   10.3828   -3.9299   18.1614 N   0  0  0  0  0  0  0  0  0  0  0  0
    6.7469   -6.8852   16.3622 C   0  0  0  0  0  0  0  0  0  0  0  0
   -0.6339  -11.4893   17.2414 C   0  0  0  0  0  0  0  0  0  0  0  0
   -0.2741  -11.7246   18.5777 C   0  0  0  0  0  0  0  0  0  0  0  0
   10.6265   -5.6067   19.9191 O   0  0  0  0  0  0  0  0  0  0  0  0
   10.1716   -5.1861   18.5783 C   0  0  0  0  0  0  0  0  0  0  0  0
    0.9143  -11.2772   18.7615 C   0  0  0  0  0  0  0  0  0  0  0  0
   -0.4299  -12.9178   21.5421 C   0  0  0  0  0  0  0  0  0  0  0  0
   13.1170   -5.3758   22.1883 C   0  0  0  0  0  0  0  0  0  0  0  0
    9.4064   -4.3904   16.1884 N   0  0  0  0  0  0  0  0  0  0  0  0
    7.2527   -8.9069   15.7670 O   0  0  0  0  0  0  0  0  0  0  0  0
   12.6855   -4.1999   24.1828 C   0  0  0  0  0  0  0  0  0  0  0  0
    2.1521   -9.9497   17.2084 C   0  0  0  0  0  0  0  0  0  0  0  0
    4.0015   -8.9212   16.2963 C   0  0  0  0  0  0  0  0  0  0  0  0
    8.9637   -5.5770   16.7208 C   0  0  0  0  0  0  0  0  0  0  0  0
    0.0545  -12.3140   20.5618 C   0  0  0  0  0  0  0  0  0  0  0  0
   -0.8837  -12.3101   19.5112 N   0  0  0  0  0  0  0  0  0  0  0  0
   10.0662   -3.5438   16.9505 C   0  0  0  0  0  0  0  0  0  0  0  0
    1.1459  -11.6789   20.1745 N   0  0  0  0  0  0  0  0  0  0  0  0
   11.8088   -4.9958   20.2217 C   0  0  0  0  0  0  0  0  0  0  0  0
  1 23  4  0
  1 26  4  0
  2 12  4  0
  2 21  4  0
  2 27  1  0
  3 13  1  0
  4  5  4  0
  4 11  4  0
  5  7  4  0
  6  9  4  0
  6 26  4  0
  7 10  1  0
  7 28  4  0
  8  9  4  0
  8 23  4  0
  8 34  1  0
 10 16  1  0
 10 25  1  0
 11 27  1  0
 11 28  4  0
 12 17  4  0
 13 20  4  0
 13 29  4  0
 14 16  2  0
 14 29  1  0
 15 20  4  0
 15 32  4  0
 17 18  4  0
 18 21  4  0
 18 31  4  0
 19 20  1  0
 19 34  1  0
 21 33  4  0
 22 30  4  0
 24 29  4  0
 24 32  4  0
 30 31  4  0
 30 33  4  0
M  END
$$$$

 Created by Python create_sdf_string function

 34 78  0  0  0  0  0  0  0  0999 V2000
   13.7248   -5.1139   23.4884 C   0  0  0  0  0  0  0  0  0  0  0  0
    1.3872  -10.6947   17.2876 N   0  0  0  0  0  0  0  0  0  0  0  0
    9.4104   -7.3469   18.0533 C   0  0  0  0  0  0  0  0  0  0  0  0
    4.2354  -10.4464   18.4613 N   0  0  0  0  0  0  0  0  0  0  0  0
    5.4119   -9.3463   17.6916 N   0  0  0  0  0  0  0  0  0  0  0  0
   11.2197   -3.6539   23.5228 C   0  0  0  0  0  0  0  0  0  0  0  0
    5.2345   -8.9724   16.0721 C   0  0  0  0  0  0  0  0  0  0  0  0
   10.9851   -4.2127   22.3363 C   0  0  0  0  0  0  0  0  0  0  0  0
    6.2274   -7.5343   16.0551 C   0  0  0  0  0  0  0  0  0  0  0  0
    3.4108   -9.2726   17.2836 C   0  0  0  0  0  0  0  0  0  0  0  0
    0.7803  -10.2235   17.1372 N   0  0  0  0  0  0  0  0  0  0  0  0
    9.3746   -6.6587   17.6054 C   0  0  0  0  0  0  0  0  0  0  0  0
    7.6718   -6.4567   16.5090 S   0  0  0  0  0  0  0  0  0  0  0  0
   10.5829   -3.7864   17.9767 N   0  0  0  0  0  0  0  0  0  0  0  0
    6.8162   -6.4904   16.2816 C   0  0  0  0  0  0  0  0  0  0  0  0
   -0.5411  -11.7447   17.1094 C   0  0  0  0  0  0  0  0  0  0  0  0
   -0.7478  -11.5959   18.2190 C   0  0  0  0  0  0  0  0  0  0  0  0
   10.6455   -5.7801   20.1081 O   0  0  0  0  0  0  0  0  0  0  0  0
   10.1213   -5.5557   18.2921 O   0  0  0  0  0  0  0  0  0  0  0  0
    0.8759  -10.7249   18.7170 C   0  0  0  0  0  0  0  0  0  0  0  0
    0.0763  -12.7573   21.6354 C   0  0  0  0  0  0  0  0  0  0  0  0
    9.6886   -3.8008   16.4427 N   0  0  0  0  0  0  0  0  0  0  0  0
    3.7453   -9.4333   16.4198 C   0  0  0  0  0  0  0  0  0  0  0  0
    8.6984   -5.6536   17.0155 C   0  0  0  0  0  0  0  0  0  0  0  0
   -0.2023  -12.4886   20.7836 C   0  0  0  0  0  0  0  0  0  0  0  0
   10.3580   -3.4577   16.6293 S   0  0  0  0  0  0  0  0  0  0  0  0
    2.1274  -11.8140   19.8765 N   0  0  0  0  0  0  0  0  0  0  0  0
   12.1138   -4.5547   20.2281 C   0  0  0  0  0  0  0  0  0  0  0  0
   11.8364   -4.8424   22.1125 He  0  0  0  0  0  0  0  0  0  0  0  0
   13.1382   -5.4039   21.9773 He  0  0  0  0  0  0  0  0  0  0  0  0
    7.0526   -8.6635   15.6341 He  0  0  0  0  0  0  0  0  0  0  0  0
   12.5795   -4.2879   24.1342 He  0  0  0  0  0  0  0  0  0  0  0  0
    2.2708  -10.5530   17.1738 He  0  0  0  0  0  0  0  0  0  0  0  0
   -1.2618  -12.6083   19.4558 He  0  0  0  0  0  0  0  0  0  0  0  0
  1  6  2  0
  1  8  3  0
  1 10  4  0
  1 11  3  0
  1 17  1  0
  2  5  2  0
  2 11  4  0
  2 14  4  0
  2 15  4  0
  2 19  3  0
  2 20  4  0
  3 10  1  0
  3 12  1  0
  3 18  1  0
  3 23  2  0
  3 26  1  0
  4  5  4  0
  4  8  2  0
  4 19  2  0
  4 25  2  0
  5  7  4  0
  5 12  1  0
  5 17  1  0
  6 16  4  0
  6 18  4  0
  6 20  3  0
  6 23  1  0
  6 28  1  0
  7  9  1  0
  7 10  1  0
  7 12  2  0
  7 23  4  0
  8 12  4  0
  8 23  2  0
  8 24  2  0
  9 12  4  0
  9 15  1  0
 10 13  1  0
 10 18  4  0
 10 23  4  0
 10 26  4  0
 11 16  4  0
 11 22  2  0
 11 24  4  0
 11 25  3  0
 11 28  4  0
 12 19  4  0
 12 24  4  0
 12 27  4  0
 13 15  2  0
 13 17  2  0
 13 22  2  0
 13 24  1  0
 14 19  4  0
 15 18  1  0
 15 24  2  0
 15 27  1  0
 16 18  2  0
 16 21  4  0
 17 19  2  0
 17 20  2  0
 17 26  4  0
 18 19  1  0
 18 21  2  0
 18 25  1  0
 18 28  1  0
 19 20  3  0
 19 21  2  0
 20 27  4  0
 21 22  1  0
 21 25  4  0
 21 27  4  0
 22 24  4  0
 22 26  4  0
 22 28  2  0
 23 27  2  0
 23 28  3  0
 25 27  4  0
M  END
$$$$

 Created by Python create_sdf_string function

 34 38  0  0  0  0  0  0  0  0999 V2000
   13.4386   -4.9835   23.5107 C   0  0  0  0  0  0  0  0  0  0  0  0
    1.4214  -10.6500   17.8456 N   0  0  0  0  0  0  0  0  0  0  0  0
    9.3907   -7.4334   18.2117 C   0  0  0  0  0  0  0  0  0  0  0  0
    4.3482  -10.1165   18.2076 N   0  0  0  0  0  0  0  0  0  0  0  0
    5.3306   -9.4909   17.6669 N   0  0  0  0  0  0  0  0  0  0  0  0
   11.3285   -3.8983   23.7891 C   0  0  0  0  0  0  0  0  0  0  0  0
    5.1157   -8.7840   16.6028 C   0  0  0  0  0  0  0  0  0  0  0  0
   12.0193   -4.7305   21.6706 C   0  0  0  0  0  0  0  0  0  0  0  0
   11.0712   -4.0954   22.4216 C   0  0  0  0  0  0  0  0  0  0  0  0
    6.1212   -7.9509   15.8671 C   0  0  0  0  0  0  0  0  0  0  0  0
    3.1860   -9.5493   16.9277 C   0  0  0  0  0  0  0  0  0  0  0  0
    0.4915  -10.6214   16.7922 N   0  0  0  0  0  0  0  0  0  0  0  0
    9.5236   -6.0009   17.8346 C   0  0  0  0  0  0  0  0  0  0  0  0
    7.7121   -6.2044   16.1074 C   0  0  0  0  0  0  0  0  0  0  0  0
   10.7612   -3.9173   17.8942 N   0  0  0  0  0  0  0  0  0  0  0  0
    6.7370   -6.8732   16.5486 C   0  0  0  0  0  0  0  0  0  0  0  0
   -0.5850  -11.2656   17.2115 C   0  0  0  0  0  0  0  0  0  0  0  0
   -0.2978  -11.7369   18.5576 C   0  0  0  0  0  0  0  0  0  0  0  0
   10.8537   -5.5103   19.8097 O   0  0  0  0  0  0  0  0  0  0  0  0
   10.3910   -5.1340   18.4737 C   0  0  0  0  0  0  0  0  0  0  0  0
    0.9621  -11.3600   18.8928 C   0  0  0  0  0  0  0  0  0  0  0  0
    0.6881  -12.2980   21.0281 C   0  0  0  0  0  0  0  0  0  0  0  0
   13.1994   -5.2361   22.2262 C   0  0  0  0  0  0  0  0  0  0  0  0
    9.2498   -4.2706   16.2087 N   0  0  0  0  0  0  0  0  0  0  0  0
    7.0908   -8.7626   15.4035 C   0  0  0  0  0  0  0  0  0  0  0  0
   12.5122   -4.3187   24.2871 C   0  0  0  0  0  0  0  0  0  0  0  0
    2.6925  -10.0088   17.5830 C   0  0  0  0  0  0  0  0  0  0  0  0
    3.7715   -8.9135   16.1855 C   0  0  0  0  0  0  0  0  0  0  0  0
    8.8375   -5.4832   16.7218 C   0  0  0  0  0  0  0  0  0  0  0  0
   -0.5577  -12.6735   20.6851 C   0  0  0  0  0  0  0  0  0  0  0  0
   -1.1073  -12.4616   19.4901 C   0  0  0  0  0  0  0  0  0  0  0  0
   10.1919   -3.5492   16.6979 C   0  0  0  0  0  0  0  0  0  0  0  0
    1.4984  -11.6447   20.2023 N   0  0  0  0  0  0  0  0  0  0  0  0
   11.8844   -4.8412   20.2477 C   0  0  0  0  0  0  0  0  0  0  0  0
  1 23  4  0
  1 26  4  0
  2 12  4  0
  2 21  4  0
  2 27  1  0
  3 13  1  0
  4  5  4  0
  4 27  4  0
  5  7  4  0
  6  9  4  0
  6 26  4  0
  7 10  1  0
  7 28  4  0
  8  9  4  0
  8 23  4  0
  8 34  1  0
 10 16  1  0
 10 25  1  0
 11 27  4  0
 11 28  4  0
 12 17  4  0
 13 20  4  0
 13 29  4  0
 14 16  2  0
 14 29  1  0
 15 20  4  0
 15 32  4  0
 17 18  4  0
 18 21  4  0
 18 31  4  0
 19 20  1  0
 19 34  1  0
 21 33  4  0
 22 30  4  0
 22 33  4  0
 24 29  4  0
 24 32  4  0
 30 31  4  0
M  END
$$$$

 Created by Python create_sdf_string function

 34 55  0  0  0  0  0  0  0  0999 V2000
   12.9966   -5.2940   23.6117 C   0  0  0  0  0  0  0  0  0  0  0  0
    1.1428  -10.7934   17.7880 N   0  0  0  0  0  0  0  0  0  0  0  0
    4.8162  -10.3228   18.1005 N   0  0  0  0  0  0  0  0  0  0  0  0
    5.4820   -9.6834   17.6349 N   0  0  0  0  0  0  0  0  0  0  0  0
   10.9160   -3.2532   23.6395 C   0  0  0  0  0  0  0  0  0  0  0  0
    5.2055   -9.3067   17.2399 C   0  0  0  0  0  0  0  0  0  0  0  0
   11.9783   -4.8432   21.3311 C   0  0  0  0  0  0  0  0  0  0  0  0
    5.6017   -7.6400   15.8498 C   0  0  0  0  0  0  0  0  0  0  0  0
    0.6646  -10.2061   17.2700 N   0  0  0  0  0  0  0  0  0  0  0  0
    9.9464   -6.0564   17.8489 C   0  0  0  0  0  0  0  0  0  0  0  0
   11.0121   -4.2290   18.0620 N   0  0  0  0  0  0  0  0  0  0  0  0
    6.4839   -7.2123   16.3778 C   0  0  0  0  0  0  0  0  0  0  0  0
   -0.3156  -11.6248   17.3903 C   0  0  0  0  0  0  0  0  0  0  0  0
   -0.5326  -11.6384   18.7348 C   0  0  0  0  0  0  0  0  0  0  0  0
   10.9189   -5.8810   20.1361 O   0  0  0  0  0  0  0  0  0  0  0  0
    0.8182  -11.5803   18.7908 C   0  0  0  0  0  0  0  0  0  0  0  0
   13.7995   -5.6976   22.5773 C   0  0  0  0  0  0  0  0  0  0  0  0
    9.0466   -3.7782   15.9699 P   0  0  0  0  0  0  0  0  0  0  0  0
    7.7084   -8.7044   15.3952 P   0  0  0  0  0  0  0  0  0  0  0  0
   12.6742   -3.8698   24.6274 C   0  0  0  0  0  0  0  0  0  0  0  0
    3.9795   -8.5084   16.1368 C   0  0  0  0  0  0  0  0  0  0  0  0
    8.9466   -5.6212   16.7029 C   0  0  0  0  0  0  0  0  0  0  0  0
   -0.3353  -12.7801   20.7754 N   0  0  0  0  0  0  0  0  0  0  0  0
   -1.2950  -12.4859   19.0415 C   0  0  0  0  0  0  0  0  0  0  0  0
   10.5097   -3.9271   17.0343 C   0  0  0  0  0  0  0  0  0  0  0  0
    0.9857  -11.4564   20.4216 N   0  0  0  0  0  0  0  0  0  0  0  0
   11.5431   -5.2264   20.0986 C   0  0  0  0  0  0  0  0  0  0  0  0
    9.6505   -7.1837   18.5868 He  0  0  0  0  0  0  0  0  0  0  0  0
   11.7198   -4.2468   22.4834 He  0  0  0  0  0  0  0  0  0  0  0  0
    3.0977   -9.3891   17.2002 He  0  0  0  0  0  0  0  0  0  0  0  0
    7.9348   -6.3847   16.1764 He  0  0  0  0  0  0  0  0  0  0  0  0
   10.4523   -5.2641   18.3730 He  0  0  0  0  0  0  0  0  0  0  0  0
    0.6641  -12.4585   20.8247 He  0  0  0  0  0  0  0  0  0  0  0  0
    2.7518   -9.6822   17.2000 He  0  0  0  0  0  0  0  0  0  0  0  0
  1  2  1  0
  1  3  2  0
  1  8  1  0
  1 17  4  0
  1 20  4  0
  2  3  1  0
  2  4  4  0
  2  9  4  0
  2 14  3  0
  2 15  2  0
  2 16  1  0
  2 24  2  0
  4  6  4  0
  4 18  2  0
  5 13  3  0
  5 20  3  0
  6  8  1  0
  6 18  2  0
  6 21  4  0
  7 13  4  0
  7 20  2  0
  7 27  1  0
  8 11  1  0
  8 12  1  0
  8 17  4  0
  8 19  1  0
  8 27  3  0
  9 13  4  0
  9 16  2  0
  9 26  2  0
 10 14  1  0
 10 25  3  0
 11 24  1  0
 11 25  4  0
 12 26  4  0
 13 14  2  0
 13 18  4  0
 13 20  1  0
 14 16  4  0
 14 22  1  0
 14 24  4  0
 14 25  1  0
 15 17  2  0
 15 20  3  0
 15 27  1  0
 16 26  4  0
 17 25  4  0
 17 26  2  0
 18 20  3  0
 18 22  3  0
 18 23  2  0
 22 24  3  0
 22 27  1  0
 23 24  4  0
 23 26  1  0
M  END
$$$$

 Created by Python create_sdf_string function

 34 38  0  0  0  0  0  0  0  0999 V2000
   13.3059   -4.9862   23.7373 C   0  0  0  0  0  0  0  0  0  0  0  0
    1.6117  -10.5895   17.9030 N   0  0  0  0  0  0  0  0  0  0  0  0
    9.4465   -7.3864   18.3110 C   0  0  0  0  0  0  0  0  0  0  0  0
    4.0787  -10.3035   18.1641 N   0  0  0  0  0  0  0  0  0  0  0  0
    5.1839   -9.6918   17.6235 N   0  0  0  0  0  0  0  0  0  0  0  0
   11.3566   -3.6389   23.6507 C   0  0  0  0  0  0  0  0  0  0  0  0
    5.1202   -8.8034   16.6529 C   0  0  0  0  0  0  0  0  0  0  0  0
   12.0774   -4.8309   21.7112 C   0  0  0  0  0  0  0  0  0  0  0  0
   11.1659   -4.0125   22.2873 C   0  0  0  0  0  0  0  0  0  0  0  0
    6.2452   -8.1449   15.8999 C   0  0  0  0  0  0  0  0  0  0  0  0
    2.8843   -9.1479   16.7356 C   0  0  0  0  0  0  0  0  0  0  0  0
    0.6183  -10.5412   16.9201 N   0  0  0  0  0  0  0  0  0  0  0  0
    9.5841   -6.0448   17.8533 C   0  0  0  0  0  0  0  0  0  0  0  0
    7.8293   -6.2742   16.1095 C   0  0  0  0  0  0  0  0  0  0  0  0
   10.8873   -3.9995   17.9050 N   0  0  0  0  0  0  0  0  0  0  0  0
    6.7909   -7.0477   16.5750 C   0  0  0  0  0  0  0  0  0  0  0  0
   -0.4663  -11.2072   17.3064 C   0  0  0  0  0  0  0  0  0  0  0  0
   -0.2595  -11.7482   18.5936 C   0  0  0  0  0  0  0  0  0  0  0  0
   10.9339   -5.5410   19.8333 O   0  0  0  0  0  0  0  0  0  0  0  0
   10.4908   -5.1897   18.5033 C   0  0  0  0  0  0  0  0  0  0  0  0
    0.9675  -11.3506   18.9948 C   0  0  0  0  0  0  0  0  0  0  0  0
    0.6029  -12.2943   21.0771 C   0  0  0  0  0  0  0  0  0  0  0  0
   13.1749   -5.3406   22.4626 C   0  0  0  0  0  0  0  0  0  0  0  0
    9.3147   -4.3368   16.1807 C   0  0  0  0  0  0  0  0  0  0  0  0
    7.3431   -8.7899   15.3788 C   0  0  0  0  0  0  0  0  0  0  0  0
   12.4090   -4.1572   24.3403 C   0  0  0  0  0  0  0  0  0  0  0  0
    2.8406  -10.0573   17.6547 C   0  0  0  0  0  0  0  0  0  0  0  0
    3.8248   -8.4921   16.2573 C   0  0  0  0  0  0  0  0  0  0  0  0
    8.9221   -5.5438   16.7473 C   0  0  0  0  0  0  0  0  0  0  0  0
   -0.6082  -12.8202   20.6638 N   0  0  0  0  0  0  0  0  0  0  0  0
   -1.0572  -12.5720   19.4438 C   0  0  0  0  0  0  0  0  0  0  0  0
   10.3072   -3.6007   16.7255 C   0  0  0  0  0  0  0  0  0  0  0  0
    1.4050  -11.6042   20.2401 N   0  0  0  0  0  0  0  0  0  0  0  0
   12.0126   -5.0624   20.2942 C   0  0  0  0  0  0  0  0  0  0  0  0
  1 23  4  0
  1 26  4  0
  2 12  4  0
  2 21  4  0
  2 27  1  0
  3 13  1  0
  4  5  4  0
  4 27  4  0
  5  7  4  0
  6  9  4  0
  6 26  4  0
  7 10  1  0
  7 28  4  0
  8  9  4  0
  8 23  4  0
  8 34  1  0
 10 16  1  0
 10 25  1  0
 11 27  4  0
 11 28  4  0
 12 17  4  0
 13 20  4  0
 13 29  4  0
 14 16  2  0
 14 29  1  0
 15 20  4  0
 15 32  4  0
 17 18  4  0
 18 21  4  0
 18 31  4  0
 19 20  1  0
 19 34  1  0
 21 33  4  0
 22 30  4  0
 22 33  4  0
 24 29  4  0
 24 32  4  0
 30 31  4  0
M  END
$$$$

 Created by Python create_sdf_string function

 34 64  0  0  0  0  0  0  0  0999 V2000
   13.2107   -5.0642   23.0811 C   0  0  0  0  0  0  0  0  0  0  0  0
    1.4569  -10.4249   18.0007 N   0  0  0  0  0  0  0  0  0  0  0  0
    9.6613   -7.1283   17.9889 C   0  0  0  0  0  0  0  0  0  0  0  0
    4.7130   -9.8557   17.7647 N   0  0  0  0  0  0  0  0  0  0  0  0
    5.0686  -10.1724   17.6566 N   0  0  0  0  0  0  0  0  0  0  0  0
   11.2853   -4.0385   23.3114 I   0  0  0  0  0  0  0  0  0  0  0  0
    5.3997   -9.4468   16.2025 C   0  0  0  0  0  0  0  0  0  0  0  0
   11.6871   -4.6318   21.7461 C   0  0  0  0  0  0  0  0  0  0  0  0
   11.5391   -3.7334   22.2089 C   0  0  0  0  0  0  0  0  0  0  0  0
    6.4893   -8.5489   15.7251 C   0  0  0  0  0  0  0  0  0  0  0  0
    2.8748   -8.8993   16.6716 C   0  0  0  0  0  0  0  0  0  0  0  0
    0.0364  -10.5008   16.9313 N   0  0  0  0  0  0  0  0  0  0  0  0
    9.5336   -6.3968   18.0311 C   0  0  0  0  0  0  0  0  0  0  0  0
    7.4551   -6.4173   16.1294 C   0  0  0  0  0  0  0  0  0  0  0  0
    7.1997   -6.4119   16.6933 C   0  0  0  0  0  0  0  0  0  0  0  0
   -0.6808  -11.2116   17.0898 C   0  0  0  0  0  0  0  0  0  0  0  0
   -0.7087  -11.6843   18.5440 C   0  0  0  0  0  0  0  0  0  0  0  0
   11.3273   -5.3630   20.3610 C   0  0  0  0  0  0  0  0  0  0  0  0
   10.2867   -4.9176   18.0303 C   0  0  0  0  0  0  0  0  0  0  0  0
    0.8520  -11.2324   19.0409 C   0  0  0  0  0  0  0  0  0  0  0  0
    0.2592  -12.3014   20.9951 C   0  0  0  0  0  0  0  0  0  0  0  0
   13.1476   -5.4456   22.0959 C   0  0  0  0  0  0  0  0  0  0  0  0
    8.7330   -4.0972   16.0320 C   0  0  0  0  0  0  0  0  0  0  0  0
    7.2968   -9.0530   15.7092 C   0  0  0  0  0  0  0  0  0  0  0  0
   12.5504   -4.3772   23.9526 C   0  0  0  0  0  0  0  0  0  0  0  0
    3.0313   -9.7786   18.3035 C   0  0  0  0  0  0  0  0  0  0  0  0
    4.0875   -8.0780   16.6544 C   0  0  0  0  0  0  0  0  0  0  0  0
    8.6253   -5.8118   16.7012 C   0  0  0  0  0  0  0  0  0  0  0  0
   -0.8912  -13.0733   20.9388 N   0  0  0  0  0  0  0  0  0  0  0  0
   -1.0667  -12.7146   19.8013 C   0  0  0  0  0  0  0  0  0  0  0  0
   10.3011   -3.8389   17.4900 He  0  0  0  0  0  0  0  0  0  0  0  0
   10.0469   -3.9206   17.3006 He  0  0  0  0  0  0  0  0  0  0  0  0
    1.8122  -11.7019   20.6177 He  0  0  0  0  0  0  0  0  0  0  0  0
   11.8712   -5.3492   20.4538 He  0  0  0  0  0  0  0  0  0  0  0  0
  1 22  4  0
  1 25  4  0
  1 28  3  0
  2 12  4  0
  2 20  4  0
  2 26  1  0
  3 13  1  0
  4  5  4  0
  4 26  4  0
  4 28  3  0
  4 30  3  0
  5  7  4  0
  5 22  1  0
  5 25  4  0
  6  7  2  0
  6  9  4  0
  6 11  2  0
  6 14  3  0
  6 15  1  0
  6 17  4  0
  6 25  4  0
  7 10  1  0
  7 12  3  0
  7 21  1  0
  7 27  4  0
  7 30  3  0
  8  9  4  0
  8 22  4  0
  8 30  4  0
  9 15  3  0
  9 27  1  0
 10 15  1  0
 10 24  4  0
 11 14  4  0
 11 24  2  0
 11 27  1  0
 12 16  4  0
 13 14  2  0
 13 19  4  0
 13 22  4  0
 13 28  4  0
 14 15  2  0
 14 28  1  0
 15 17  4  0
 15 20  2  0
 15 23  1  0
 15 30  2  0
 16 20  4  0
 17 20  1  0
 17 21  2  0
 17 30  2  0
 18 19  1  0
 18 23  3  0
 18 24  4  0
 18 30  2  0
 19 27  4  0
 20 22  3  0
 20 23  1  0
 20 29  1  0
 21 29  4  0
 22 24  2  0
 23 28  4  0
 26 27  3  0
 29 30  4  0
M  END
$$$$

 Created by Python create_sdf_string function

 34 38  0  0  0  0  0  0  0  0999 V2000
   13.3600   -5.1076   23.4428 C   0  0  0  0  0  0  0  0  0  0  0  0
    1.5051  -10.5428   17.9420 N   0  0  0  0  0  0  0  0  0  0  0  0
    9.4994   -7.4549   18.2591 C   0  0  0  0  0  0  0  0  0  0  0  0
    3.9872  -10.4074   18.0668 N   0  0  0  0  0  0  0  0  0  0  0  0
    5.1279   -9.9863   17.5792 N   0  0  0  0  0  0  0  0  0  0  0  0
   11.4301   -3.7320   23.5498 C   0  0  0  0  0  0  0  0  0  0  0  0
    5.1727   -8.9879   16.6745 C   0  0  0  0  0  0  0  0  0  0  0  0
   12.0430   -4.7724   21.5652 C   0  0  0  0  0  0  0  0  0  0  0  0
   11.1596   -3.9842   22.2635 C   0  0  0  0  0  0  0  0  0  0  0  0
    6.3609   -8.4146   15.8757 C   0  0  0  0  0  0  0  0  0  0  0  0
    2.8478   -8.8189   16.8517 C   0  0  0  0  0  0  0  0  0  0  0  0
    0.5106  -10.4605   16.9769 N   0  0  0  0  0  0  0  0  0  0  0  0
    9.5271   -6.0046   17.7600 C   0  0  0  0  0  0  0  0  0  0  0  0
    7.6151   -6.3683   16.1661 C   0  0  0  0  0  0  0  0  0  0  0  0
   10.5674   -3.7908   17.7638 C   0  0  0  0  0  0  0  0  0  0  0  0
    6.7857   -7.0724   16.4901 C   0  0  0  0  0  0  0  0  0  0  0  0
   -0.5469  -11.1651   17.3521 C   0  0  0  0  0  0  0  0  0  0  0  0
   -0.3450  -11.7182   18.6542 C   0  0  0  0  0  0  0  0  0  0  0  0
   10.8233   -5.4249   19.7151 C   0  0  0  0  0  0  0  0  0  0  0  0
   10.3471   -5.0666   18.3631 C   0  0  0  0  0  0  0  0  0  0  0  0
    0.9328  -11.2650   19.0247 C   0  0  0  0  0  0  0  0  0  0  0  0
    0.5454  -12.3415   21.1580 C   0  0  0  0  0  0  0  0  0  0  0  0
   13.1668   -5.3008   22.1363 C   0  0  0  0  0  0  0  0  0  0  0  0
    8.9451   -4.3171   16.1404 C   0  0  0  0  0  0  0  0  0  0  0  0
    7.4516   -9.0747   15.5746 C   0  0  0  0  0  0  0  0  0  0  0  0
   12.4898   -4.3176   24.1355 C   0  0  0  0  0  0  0  0  0  0  0  0
    2.8243   -9.9555   17.6844 C   0  0  0  0  0  0  0  0  0  0  0  0
    3.9050   -8.3820   16.3830 C   0  0  0  0  0  0  0  0  0  0  0  0
    8.7471   -5.5317   16.7127 C   0  0  0  0  0  0  0  0  0  0  0  0
   -0.6902  -12.8216   20.7553 N   0  0  0  0  0  0  0  0  0  0  0  0
   -1.1142  -12.5125   19.5438 C   0  0  0  0  0  0  0  0  0  0  0  0
    9.8982   -3.4789   16.6278 C   0  0  0  0  0  0  0  0  0  0  0  0
    1.3512  -11.5529   20.3232 N   0  0  0  0  0  0  0  0  0  0  0  0
   11.9280   -4.9642   20.1311 O   0  0  0  0  0  0  0  0  0  0  0  0
  1 23  4  0
  1 26  4  0
  2 12  4  0
  2 21  4  0
  2 27  1  0
  3 13  1  0
  4  5  4  0
  4 27  4  0
  5  7  4  0
  6  9  4  0
  6 26  4  0
  7 10  1  0
  7 28  4  0
  8  9  4  0
  8 23  4  0
  8 34  1  0
 10 16  1  0
 10 25  1  0
 11 27  4  0
 11 28  4  0
 12 17  4  0
 13 20  4  0
 13 29  4  0
 14 16  2  0
 14 29  1  0
 15 20  4  0
 15 32  4  0
 17 18  4  0
 18 21  4  0
 18 31  4  0
 19 20  1  0
 19 34  1  0
 21 33  4  0
 22 30  4  0
 22 33  4  0
 24 29  4  0
 24 32  4  0
 30 31  4  0
M  END
$$$$

 Created by Python create_sdf_string function

 34 70  0  0  0  0  0  0  0  0999 V2000
   13.4757   -5.0305   23.5303 C   0  0  0  0  0  0  0  0  0  0  0  0
    2.1170  -10.6196   17.8039 N   0  0  0  0  0  0  0  0  0  0  0  0
    9.3315   -7.4405   18.8821 C   0  0  0  0  0  0  0  0  0  0  0  0
    3.9110  -10.7912   18.5422 N   0  0  0  0  0  0  0  0  0  0  0  0
    4.6244  -10.2424   17.4891 N   0  0  0  0  0  0  0  0  0  0  0  0
   11.1476   -3.8945   23.2078 C   0  0  0  0  0  0  0  0  0  0  0  0
    5.1488   -8.5249   16.8610 C   0  0  0  0  0  0  0  0  0  0  0  0
   12.3116   -4.7391   21.5495 C   0  0  0  0  0  0  0  0  0  0  0  0
   11.7677   -3.9723   22.5764 C   0  0  0  0  0  0  0  0  0  0  0  0
    6.1194   -8.2233   15.5164 C   0  0  0  0  0  0  0  0  0  0  0  0
    2.9549   -8.7126   16.7729 C   0  0  0  0  0  0  0  0  0  0  0  0
    0.4100  -10.3065   17.3929 N   0  0  0  0  0  0  0  0  0  0  0  0
    9.2067   -6.0266   18.0107 C   0  0  0  0  0  0  0  0  0  0  0  0
    7.7413   -6.5575   16.1604 C   0  0  0  0  0  0  0  0  0  0  0  0
   10.6267   -4.1223   17.4137 C   0  0  0  0  0  0  0  0  0  0  0  0
   -1.0568  -10.6235   17.4466 C   0  0  0  0  0  0  0  0  0  0  0  0
   -0.3540  -11.6502   18.8751 C   0  0  0  0  0  0  0  0  0  0  0  0
   10.9828   -5.5552   19.7727 C   0  0  0  0  0  0  0  0  0  0  0  0
    9.8994   -5.0527   18.5460 C   0  0  0  0  0  0  0  0  0  0  0  0
    1.2049  -11.7365   18.9498 C   0  0  0  0  0  0  0  0  0  0  0  0
    0.9360  -12.2553   21.3396 C   0  0  0  0  0  0  0  0  0  0  0  0
   13.5880   -5.7365   22.2363 C   0  0  0  0  0  0  0  0  0  0  0  0
    8.9606   -3.9132   16.2019 C   0  0  0  0  0  0  0  0  0  0  0  0
    7.7333   -8.7241   15.5429 C   0  0  0  0  0  0  0  0  0  0  0  0
   12.7161   -4.3709   23.6478 C   0  0  0  0  0  0  0  0  0  0  0  0
    2.4877  -10.2889   17.6233 C   0  0  0  0  0  0  0  0  0  0  0  0
    4.0410   -8.2658   16.4570 C   0  0  0  0  0  0  0  0  0  0  0  0
    9.1831   -5.5709   16.6308 C   0  0  0  0  0  0  0  0  0  0  0  0
   -0.0333  -12.8802   20.8643 N   0  0  0  0  0  0  0  0  0  0  0  0
   10.2791   -2.9259   16.1487 Cl  0  0  0  0  0  0  0  0  0  0  0  0
    1.6903  -11.7910   20.6191 N   0  0  0  0  0  0  0  0  0  0  0  0
   11.8850   -5.2803   20.1007 O   0  0  0  0  0  0  0  0  0  0  0  0
    6.5726   -6.5381   16.5299 He  0  0  0  0  0  0  0  0  0  0  0  0
   -1.3929  -12.6477   19.9523 He  0  0  0  0  0  0  0  0  0  0  0  0
  1  4  3  0
  1 14  3  0
  1 22  4  0
  1 25  3  0
  2 12  4  0
  2 22  2  0
  2 26  1  0
  2 29  3  0
  3  9  4  0
  3 13  3  0
  3 16  1  0
  3 18  4  0
  3 27  3  0
  4  5  4  0
  4 22  2  0
  4 27  4  0
  4 29  4  0
  5  6  2  0
  5  7  4  0
  5 10  4  0
  5 11  4  0
  5 23  2  0
  5 25  3  0
  6 12  2  0
  6 14  3  0
  6 25  4  0
  7 10  1  0
  7 32  2  0
  8  9  4  0
  8 11  1  0
  8 22  4  0
  8 26  3  0
  9 32  1  0
 10 13  1  0
 10 21  1  0
 10 22  4  0
 10 23  2  0
 10 24  2  0
 11 26  2  0
 11 27  4  0
 12 16  4  0
 13 18  4  0
 13 28  4  0
 14 17  4  0
 14 23  4  0
 14 30  3  0
 15 19  4  0
 15 30  3  0
 16 17  4  0
 16 29  1  0
 17 20  4  0
 17 24  4  0
 17 25  3  0
 17 28  4  0
 18 19  1  0
 18 26  1  0
 18 32  1  0
 19 23  3  0
 20 21  3  0
 20 24  3  0
 20 29  3  0
 20 31  4  0
 21 22  2  0
 21 27  1  0
 21 29  4  0
 21 31  4  0
 23 28  4  0
 23 30  1  0
 23 31  1  0
 24 29  2  0
M  END
$$$$

 Created by Python create_sdf_string function

 34 38  0  0  0  0  0  0  0  0999 V2000
   13.5402   -5.1140   23.3826 C   0  0  0  0  0  0  0  0  0  0  0  0
    1.5142  -10.5482   18.0049 N   0  0  0  0  0  0  0  0  0  0  0  0
    9.2093   -7.3269   18.4414 C   0  0  0  0  0  0  0  0  0  0  0  0
    3.8737  -10.4673   18.0209 N   0  0  0  0  0  0  0  0  0  0  0  0
    5.0601   -9.8780   17.5652 N   0  0  0  0  0  0  0  0  0  0  0  0
   11.5661   -3.8029   23.4953 C   0  0  0  0  0  0  0  0  0  0  0  0
    5.0730   -8.8617   16.7236 C   0  0  0  0  0  0  0  0  0  0  0  0
   12.2148   -4.8492   21.5283 C   0  0  0  0  0  0  0  0  0  0  0  0
   11.2969   -4.0539   22.2253 C   0  0  0  0  0  0  0  0  0  0  0  0
    6.3260   -8.2478   16.0546 C   0  0  0  0  0  0  0  0  0  0  0  0
    2.7259   -8.8781   16.7903 C   0  0  0  0  0  0  0  0  0  0  0  0
    0.4123  -10.3529   17.1664 N   0  0  0  0  0  0  0  0  0  0  0  0
    9.4307   -5.9981   17.8577 C   0  0  0  0  0  0  0  0  0  0  0  0
    7.7173   -6.3156   16.0211 C   0  0  0  0  0  0  0  0  0  0  0  0
   10.6983   -3.9310   17.7064 C   0  0  0  0  0  0  0  0  0  0  0  0
    6.6298   -6.8892   16.4132 N   0  0  0  0  0  0  0  0  0  0  0  0
   -0.6491  -11.0124   17.7075 C   0  0  0  0  0  0  0  0  0  0  0  0
   -0.2798  -11.6550   18.9435 C   0  0  0  0  0  0  0  0  0  0  0  0
   10.7427   -5.3111   19.7343 C   0  0  0  0  0  0  0  0  0  0  0  0
   10.3611   -5.0980   18.3932 C   0  0  0  0  0  0  0  0  0  0  0  0
    1.0615  -11.3304   19.1260 C   0  0  0  0  0  0  0  0  0  0  0  0
    0.9921  -12.4312   21.1727 C   0  0  0  0  0  0  0  0  0  0  0  0
   13.3295   -5.3410   22.1072 C   0  0  0  0  0  0  0  0  0  0  0  0
    9.0902   -4.3825   16.0691 C   0  0  0  0  0  0  0  0  0  0  0  0
    7.3670   -8.9212   15.5777 C   0  0  0  0  0  0  0  0  0  0  0  0
   12.6394   -4.3645   24.1123 C   0  0  0  0  0  0  0  0  0  0  0  0
    2.7276  -10.0028   17.6217 C   0  0  0  0  0  0  0  0  0  0  0  0
    3.8438   -8.3296   16.4310 C   0  0  0  0  0  0  0  0  0  0  0  0
    8.7664   -5.5441   16.7188 C   0  0  0  0  0  0  0  0  0  0  0  0
   -0.3149  -12.7834   21.0135 N   0  0  0  0  0  0  0  0  0  0  0  0
   -0.9960  -12.4760   19.9089 C   0  0  0  0  0  0  0  0  0  0  0  0
   10.1504   -3.5899   16.5149 C   0  0  0  0  0  0  0  0  0  0  0  0
    1.7099  -11.7553   20.2389 N   0  0  0  0  0  0  0  0  0  0  0  0
   12.0739   -5.0787   20.0878 O   0  0  0  0  0  0  0  0  0  0  0  0
  1 23  4  0
  1 26  4  0
  2 12  4  0
  2 21  4  0
  2 27  1  0
  3 13  1  0
  4  5  4  0
  4 27  4  0
  5  7  4  0
  6  9  4  0
  6 26  4  0
  7 10  1  0
  7 28  4  0
  8  9  4  0
  8 23  4  0
  8 34  1  0
 10 16  1  0
 10 25  2  0
 11 27  4  0
 11 28  4  0
 12 17  4  0
 13 20  4  0
 13 29  4  0
 14 16  2  0
 14 29  1  0
 15 20  4  0
 15 32  4  0
 17 18  4  0
 18 21  4  0
 18 31  4  0
 19 20  1  0
 19 34  1  0
 21 33  4  0
 22 30  4  0
 22 33  4  0
 24 29  4  0
 24 32  4  0
 30 31  4  0
M  END
$$$$

 Created by Python create_sdf_string function

 34 59  0  0  0  0  0  0  0  0999 V2000
   13.7356   -5.0581   23.1868 C   0  0  0  0  0  0  0  0  0  0  0  0
    3.2148  -10.2623   17.6630 N   0  0  0  0  0  0  0  0  0  0  0  0
    4.8764  -10.0016   17.8539 N   0  0  0  0  0  0  0  0  0  0  0  0
   12.2247   -5.2201   21.6323 Cl  0  0  0  0  0  0  0  0  0  0  0  0
   11.5319   -3.8973   21.9680 C   0  0  0  0  0  0  0  0  0  0  0  0
    6.3467   -8.1449   15.8884 C   0  0  0  0  0  0  0  0  0  0  0  0
    2.8402   -9.0243   16.6905 C   0  0  0  0  0  0  0  0  0  0  0  0
    0.5414  -10.4855   16.8453 N   0  0  0  0  0  0  0  0  0  0  0  0
    9.4062   -6.1253   17.7183 C   0  0  0  0  0  0  0  0  0  0  0  0
    7.7914   -6.1654   16.1865 C   0  0  0  0  0  0  0  0  0  0  0  0
    6.5427   -6.9493   16.1929 N   0  0  0  0  0  0  0  0  0  0  0  0
   -0.2484  -11.4837   18.7932 C   0  0  0  0  0  0  0  0  0  0  0  0
   10.7577   -5.6571   20.3187 C   0  0  0  0  0  0  0  0  0  0  0  0
   10.1539   -5.1053   18.2694 C   0  0  0  0  0  0  0  0  0  0  0  0
    1.0698  -11.1459   19.3345 C   0  0  0  0  0  0  0  0  0  0  0  0
    1.3948  -12.6394   21.7177 C   0  0  0  0  0  0  0  0  0  0  0  0
   13.1052   -5.2340   22.3318 C   0  0  0  0  0  0  0  0  0  0  0  0
    8.8940   -4.2476   15.9188 C   0  0  0  0  0  0  0  0  0  0  0  0
    7.3466   -9.0080   15.6250 C   0  0  0  0  0  0  0  0  0  0  0  0
   12.4747   -4.2130   24.2205 C   0  0  0  0  0  0  0  0  0  0  0  0
    2.4233   -9.7954   17.4177 C   0  0  0  0  0  0  0  0  0  0  0  0
    4.0280   -8.6654   16.7989 O   0  0  0  0  0  0  0  0  0  0  0  0
    8.4556   -5.6456   16.7329 C   0  0  0  0  0  0  0  0  0  0  0  0
   -0.1329  -12.7516   20.6412 N   0  0  0  0  0  0  0  0  0  0  0  0
   -0.5161  -12.3563   19.8781 C   0  0  0  0  0  0  0  0  0  0  0  0
   10.3940   -3.8464   16.7931 C   0  0  0  0  0  0  0  0  0  0  0  0
    1.6669  -12.0059   20.3377 N   0  0  0  0  0  0  0  0  0  0  0  0
   12.0878   -5.0042   19.9811 O   0  0  0  0  0  0  0  0  0  0  0  0
    1.5926  -10.6879   17.9423 He  0  0  0  0  0  0  0  0  0  0  0  0
    9.3555   -7.4927   17.7588 He  0  0  0  0  0  0  0  0  0  0  0  0
   11.3140   -3.8967   23.2257 He  0  0  0  0  0  0  0  0  0  0  0  0
    4.7928   -9.1481   16.9635 He  0  0  0  0  0  0  0  0  0  0  0  0
   10.5087   -3.7920   18.1200 He  0  0  0  0  0  0  0  0  0  0  0  0
   -0.4298  -11.2511   17.4495 He  0  0  0  0  0  0  0  0  0  0  0  0
  1 17  3  0
  1 20  4  0
  2  3  2  0
  2  7  1  0
  2 10  2  0
  2 18  2  0
  2 21  4  0
  3 20  4  0
  4  5  4  0
  4 17  4  0
  4 21  4  0
  4 28  1  0
  5 19  2  0
  5 23  3  0
  6  8  3  0
  6 10  2  0
  6 11  1  0
  6 19  2  0
  6 22  3  0
  7 10  4  0
  7 17  4  0
  7 21  4  0
  8 10  2  0
  8 28  4  0
  9 14  4  0
  9 16  3  0
  9 21  1  0
  9 23  4  0
  9 28  4  0
 10 26  1  0
 10 28  3  0
 11 14  2  0
 12 25  4  0
 13 24  2  0
 13 26  4  0
 13 28  1  0
 14 16  2  0
 14 18  3  0
 14 26  1  0
 15 17  2  0
 15 21  4  0
 15 27  4  0
 15 28  4  0
 16 22  4  0
 16 24  4  0
 16 25  4  0
 16 27  1  0
 17 24  2  0
 17 27  1  0
 18 19  4  0
 18 28  3  0
 19 20  1  0
 19 22  1  0
 19 28  1  0
 22 28  2  0
 23 24  3  0
 23 28  4  0
 24 25  4  0
 24 28  1  0
M  END
$$$$

 Created by Python create_sdf_string function

 34 38  0  0  0  0  0  0  0  0999 V2000
   13.5151   -5.0335   23.3772 C   0  0  0  0  0  0  0  0  0  0  0  0
    1.5427  -10.5870   17.9228 C   0  0  0  0  0  0  0  0  0  0  0  0
    9.2585   -7.4528   18.1161 C   0  0  0  0  0  0  0  0  0  0  0  0
    3.9076  -10.3530   18.0628 N   0  0  0  0  0  0  0  0  0  0  0  0
    5.0670   -9.8398   17.6541 N   0  0  0  0  0  0  0  0  0  0  0  0
   11.4664   -3.7588   23.4969 C   0  0  0  0  0  0  0  0  0  0  0  0
    5.1098   -8.8573   16.7597 C   0  0  0  0  0  0  0  0  0  0  0  0
   12.1317   -4.7986   21.5006 C   0  0  0  0  0  0  0  0  0  0  0  0
   11.2130   -4.0360   22.1942 C   0  0  0  0  0  0  0  0  0  0  0  0
    6.4028   -8.2981   16.2312 C   0  0  0  0  0  0  0  0  0  0  0  0
    2.8037   -8.9126   16.6842 C   0  0  0  0  0  0  0  0  0  0  0  0
    0.4479  -10.5496   17.0980 N   0  0  0  0  0  0  0  0  0  0  0  0
    9.3818   -6.0567   17.7183 C   0  0  0  0  0  0  0  0  0  0  0  0
    7.5944   -6.2154   15.8890 C   0  0  0  0  0  0  0  0  0  0  0  0
   10.6549   -4.0173   17.8138 C   0  0  0  0  0  0  0  0  0  0  0  0
    6.6462   -6.9735   16.3934 N   0  0  0  0  0  0  0  0  0  0  0  0
   -0.5554  -11.2484   17.6626 N   0  0  0  0  0  0  0  0  0  0  0  0
   -0.1235  -11.7303   18.9228 C   0  0  0  0  0  0  0  0  0  0  0  0
   10.7413   -5.5982   19.7770 C   0  0  0  0  0  0  0  0  0  0  0  0
   10.2573   -5.2176   18.3854 C   0  0  0  0  0  0  0  0  0  0  0  0
    1.1465  -11.3415   19.1178 C   0  0  0  0  0  0  0  0  0  0  0  0
    1.1305  -12.4321   21.2159 C   0  0  0  0  0  0  0  0  0  0  0  0
   13.2888   -5.2455   22.1090 C   0  0  0  0  0  0  0  0  0  0  0  0
    9.0478   -4.3625   16.0723 C   0  0  0  0  0  0  0  0  0  0  0  0
    7.1671   -9.0625   15.7107 O   0  0  0  0  0  0  0  0  0  0  0  0
   12.6070   -4.2665   24.0781 C   0  0  0  0  0  0  0  0  0  0  0  0
    2.7445   -9.9673   17.5482 C   0  0  0  0  0  0  0  0  0  0  0  0
    3.9264   -8.3874   16.3322 C   0  0  0  0  0  0  0  0  0  0  0  0
    8.7179   -5.5588   16.6041 C   0  0  0  0  0  0  0  0  0  0  0  0
   -0.1420  -12.8058   21.0073 N   0  0  0  0  0  0  0  0  0  0  0  0
   -0.7770  -12.4997   19.9679 C   0  0  0  0  0  0  0  0  0  0  0  0
   10.0264   -3.5879   16.6729 C   0  0  0  0  0  0  0  0  0  0  0  0
    1.7939  -11.6614   20.2967 N   0  0  0  0  0  0  0  0  0  0  0  0
   11.9319   -5.1045   20.1029 O   0  0  0  0  0  0  0  0  0  0  0  0
  1 23  4  0
  1 26  4  0
  2 12  4  0
  2 21  4  0
  2 27  1  0
  3 13  1  0
  4  5  4  0
  4 27  4  0
  5  7  4  0
  6  9  4  0
  6 26  4  0
  7 10  1  0
  7 28  4  0
  8  9  4  0
  8 23  4  0
  8 34  1  0
 10 16  1  0
 10 25  2  0
 11 27  4  0
 11 28  4  0
 12 17  4  0
 13 20  4  0
 13 29  4  0
 14 16  1  0
 14 29  1  0
 15 20  4  0
 15 32  4  0
 17 18  4  0
 18 21  4  0
 18 31  4  0
 19 20  1  0
 19 34  1  0
 21 33  4  0
 22 30  4  0
 22 33  4  0
 24 29  4  0
 24 32  4  0
 30 31  4  0
M  END
$$$$

 Created by Python create_sdf_string function

 34 63  0  0  0  0  0  0  0  0999 V2000
   13.9342   -5.0308   23.4131 C   0  0  0  0  0  0  0  0  0  0  0  0
    1.7123  -10.5774   17.5217 C   0  0  0  0  0  0  0  0  0  0  0  0
    9.3263   -7.7971   18.5527 C   0  0  0  0  0  0  0  0  0  0  0  0
    3.4249  -10.0511   18.1044 N   0  0  0  0  0  0  0  0  0  0  0  0
    5.3219   -9.7069   17.7880 N   0  0  0  0  0  0  0  0  0  0  0  0
   11.5133   -3.7723   23.7395 C   0  0  0  0  0  0  0  0  0  0  0  0
    5.2164   -8.9046   16.8529 C   0  0  0  0  0  0  0  0  0  0  0  0
   11.2100   -4.1928   22.0206 C   0  0  0  0  0  0  0  0  0  0  0  0
    6.5508   -8.2274   16.2475 C   0  0  0  0  0  0  0  0  0  0  0  0
    3.2782   -8.8636   16.6304 C   0  0  0  0  0  0  0  0  0  0  0  0
    0.4385  -10.9207   17.2014 N   0  0  0  0  0  0  0  0  0  0  0  0
    9.6526   -5.9878   17.1656 C   0  0  0  0  0  0  0  0  0  0  0  0
   10.4259   -4.0005   17.3892 O   0  0  0  0  0  0  0  0  0  0  0  0
    6.3178   -6.9406   15.9750 N   0  0  0  0  0  0  0  0  0  0  0  0
   -0.5983  -11.1189   17.5956 I   0  0  0  0  0  0  0  0  0  0  0  0
   -0.1095  -11.5830   19.1603 C   0  0  0  0  0  0  0  0  0  0  0  0
   10.5444   -5.1483   18.6235 C   0  0  0  0  0  0  0  0  0  0  0  0
    1.2562  -12.5534   21.3854 C   0  0  0  0  0  0  0  0  0  0  0  0
    9.3798   -4.7781   16.0217 C   0  0  0  0  0  0  0  0  0  0  0  0
    7.2555   -8.9323   15.4775 O   0  0  0  0  0  0  0  0  0  0  0  0
   12.7783   -4.4332   24.2653 C   0  0  0  0  0  0  0  0  0  0  0  0
    2.4514   -9.8732   17.5946 C   0  0  0  0  0  0  0  0  0  0  0  0
    3.8096   -8.2865   15.8865 C   0  0  0  0  0  0  0  0  0  0  0  0
    9.1368   -5.2092   17.0455 C   0  0  0  0  0  0  0  0  0  0  0  0
   -0.5679  -12.6654   20.6302 N   0  0  0  0  0  0  0  0  0  0  0  0
   -0.8556  -12.8558   20.0894 C   0  0  0  0  0  0  0  0  0  0  0  0
    9.8366   -3.5144   16.7760 C   0  0  0  0  0  0  0  0  0  0  0  0
    2.4346  -11.1925   20.2857 N   0  0  0  0  0  0  0  0  0  0  0  0
   12.0579   -4.6288   20.1494 O   0  0  0  0  0  0  0  0  0  0  0  0
   12.4007   -4.6085   21.6564 He  0  0  0  0  0  0  0  0  0  0  0  0
    7.3727   -5.8007   15.7082 He  0  0  0  0  0  0  0  0  0  0  0  0
   10.5468   -5.4874   19.3426 He  0  0  0  0  0  0  0  0  0  0  0  0
    1.2235  -11.7349   19.2272 He  0  0  0  0  0  0  0  0  0  0  0  0
   13.1769   -5.3096   22.0542 He  0  0  0  0  0  0  0  0  0  0  0  0
  1  7  4  0
  1 11  4  0
  1 21  4  0
  1 23  2  0
  2 11  4  0
  2 14  2  0
  2 22  1  0
  3  6  3  0
  3 10  1  0
  3 12  1  0
  3 23  4  0
  3 25  4  0
  4 19  2  0
  4 21  3  0
  4 22  4  0
  4 28  1  0
  5  7  4  0
  5 10  3  0
  5 13  2  0
  5 15  2  0
  5 16  3  0
  5 23  2  0
  6  8  4  0
  6 15  1  0
  6 21  4  0
  7  9  1  0
  7 14  1  0
  7 23  4  0
  8 29  4  0
  9 24  1  0
  9 29  1  0
 10 14  3  0
 10 22  4  0
 10 23  4  0
 11 15  4  0
 12 14  2  0
 12 15  2  0
 12 17  4  0
 13 15  4  0
 13 17  1  0
 13 27  2  0
 14 16  3  0
 14 23  2  0
 15 16  4  0
 15 20  3  0
 15 26  1  0
 15 27  3  0
 15 29  2  0
 16 19  4  0
 16 20  3  0
 16 26  4  0
 16 28  4  0
 17 20  2  0
 18 19  4  0
 18 25  4  0
 19 24  4  0
 19 25  3  0
 19 27  4  0
 19 29  2  0
 20 27  2  0
 22 24  3  0
 25 26  4  0
 27 28  4  0
M  END
$$$$

 Created by Python create_sdf_string function

 34 38  0  0  0  0  0  0  0  0999 V2000
   13.6407   -5.0262   23.2846 C   0  0  0  0  0  0  0  0  0  0  0  0
    1.5924  -10.5795   17.8865 C   0  0  0  0  0  0  0  0  0  0  0  0
    9.3609   -7.4240   18.2086 C   0  0  0  0  0  0  0  0  0  0  0  0
    3.9895  -10.1545   18.1363 N   0  0  0  0  0  0  0  0  0  0  0  0
    5.1485   -9.5819   17.7260 N   0  0  0  0  0  0  0  0  0  0  0  0
   11.5109   -3.9321   23.6662 C   0  0  0  0  0  0  0  0  0  0  0  0
    5.1947   -8.7256   16.7231 C   0  0  0  0  0  0  0  0  0  0  0  0
   12.1525   -4.6761   21.5270 C   0  0  0  0  0  0  0  0  0  0  0  0
   11.2139   -4.0893   22.3294 C   0  0  0  0  0  0  0  0  0  0  0  0
    6.4200   -8.1911   16.1681 C   0  0  0  0  0  0  0  0  0  0  0  0
    2.8392   -9.0332   16.5139 C   0  0  0  0  0  0  0  0  0  0  0  0
    0.4972  -10.5745   17.0801 N   0  0  0  0  0  0  0  0  0  0  0  0
    9.4781   -6.0099   17.6836 C   0  0  0  0  0  0  0  0  0  0  0  0
    7.7588   -6.2362   15.8469 C   0  0  0  0  0  0  0  0  0  0  0  0
   10.6983   -3.9183   17.6893 C   0  0  0  0  0  0  0  0  0  0  0  0
    6.5919   -6.8406   16.2295 N   0  0  0  0  0  0  0  0  0  0  0  0
   -0.4906  -11.3369   17.6322 N   0  0  0  0  0  0  0  0  0  0  0  0
   -0.0718  -11.7670   18.8993 C   0  0  0  0  0  0  0  0  0  0  0  0
   10.8649   -5.4430   19.6408 C   0  0  0  0  0  0  0  0  0  0  0  0
   10.3626   -5.1287   18.3290 C   0  0  0  0  0  0  0  0  0  0  0  0
    1.2236  -11.3257   19.0470 N   0  0  0  0  0  0  0  0  0  0  0  0
    1.1957  -12.3502   21.1913 C   0  0  0  0  0  0  0  0  0  0  0  0
   13.3174   -5.1804   21.9937 C   0  0  0  0  0  0  0  0  0  0  0  0
    9.0842   -4.3499   16.0134 C   0  0  0  0  0  0  0  0  0  0  0  0
    7.2376   -8.9749   15.7515 O   0  0  0  0  0  0  0  0  0  0  0  0
   12.7364   -4.3947   24.1486 C   0  0  0  0  0  0  0  0  0  0  0  0
    2.8195   -9.9283   17.5224 C   0  0  0  0  0  0  0  0  0  0  0  0
    3.9867   -8.3950   16.1728 C   0  0  0  0  0  0  0  0  0  0  0  0
    8.7814   -5.5545   16.5796 C   0  0  0  0  0  0  0  0  0  0  0  0
   -0.0651  -12.7792   21.0449 N   0  0  0  0  0  0  0  0  0  0  0  0
   -0.7492  -12.4809   19.9392 C   0  0  0  0  0  0  0  0  0  0  0  0
   10.1067   -3.5936   16.5040 C   0  0  0  0  0  0  0  0  0  0  0  0
    1.8760  -11.6361   20.2154 N   0  0  0  0  0  0  0  0  0  0  0  0
   11.9278   -4.7143   20.0706 O   0  0  0  0  0  0  0  0  0  0  0  0
  1 23  4  0
  1 26  4  0
  2 12  4  0
  2 21  4  0
  2 27  1  0
  3 13  1  0
  4  5  4  0
  4 27  4  0
  5  7  4  0
  6  9  4  0
  6 26  4  0
  7 10  1  0
  7 28  4  0
  8  9  4  0
  8 23  4  0
  8 34  1  0
 10 16  1  0
 10 25  2  0
 11 27  4  0
 11 28  4  0
 12 17  4  0
 13 20  4  0
 13 29  4  0
 14 16  1  0
 14 29  1  0
 15 20  4  0
 15 32  4  0
 17 18  4  0
 18 21  4  0
 18 31  4  0
 19 20  1  0
 19 34  1  0
 21 33  4  0
 22 30  4  0
 22 33  4  0
 24 29  4  0
 24 32  4  0
 30 31  4  0
M  END
$$$$

 Created by Python create_sdf_string function

 34 46  0  0  0  0  0  0  0  0999 V2000
    1.2205  -10.3506   17.7091 C   0  0  0  0  0  0  0  0  0  0  0  0
    9.4487   -7.4175   18.4628 C   0  0  0  0  0  0  0  0  0  0  0  0
    4.1357  -10.0175   18.0951 N   0  0  0  0  0  0  0  0  0  0  0  0
    5.4192   -9.5905   17.9487 N   0  0  0  0  0  0  0  0  0  0  0  0
   11.4699   -4.2126   23.4934 C   0  0  0  0  0  0  0  0  0  0  0  0
    5.0943   -8.9000   16.4828 O   0  0  0  0  0  0  0  0  0  0  0  0
   12.6546   -4.6462   21.3669 S   0  0  0  0  0  0  0  0  0  0  0  0
   11.3648   -3.8679   21.9988 N   0  0  0  0  0  0  0  0  0  0  0  0
    2.7676   -9.3518   16.8331 C   0  0  0  0  0  0  0  0  0  0  0  0
    0.2908  -10.9275   17.3424 N   0  0  0  0  0  0  0  0  0  0  0  0
    9.3756   -5.6312   17.1748 C   0  0  0  0  0  0  0  0  0  0  0  0
    7.3730   -6.0730   15.6669 C   0  0  0  0  0  0  0  0  0  0  0  0
   10.4376   -3.7301   17.7592 O   0  0  0  0  0  0  0  0  0  0  0  0
    6.4169   -7.0510   15.9433 N   0  0  0  0  0  0  0  0  0  0  0  0
   -0.2511  -11.7627   19.2069 C   0  0  0  0  0  0  0  0  0  0  0  0
   10.5605   -5.6064   19.8256 C   0  0  0  0  0  0  0  0  0  0  0  0
   10.3415   -4.7123   18.5876 C   0  0  0  0  0  0  0  0  0  0  0  0
    0.9518  -12.5056   21.4731 C   0  0  0  0  0  0  0  0  0  0  0  0
   13.4262   -5.2970   21.6853 C   0  0  0  0  0  0  0  0  0  0  0  0
    9.0637   -4.3565   16.5484 C   0  0  0  0  0  0  0  0  0  0  0  0
    6.9921   -8.7684   15.4896 O   0  0  0  0  0  0  0  0  0  0  0  0
   12.6954   -4.2215   23.9641 C   0  0  0  0  0  0  0  0  0  0  0  0
    2.9107  -10.2494   17.6023 C   0  0  0  0  0  0  0  0  0  0  0  0
    3.5888   -8.3900   15.9845 C   0  0  0  0  0  0  0  0  0  0  0  0
   -0.0400  -13.0260   20.9459 N   0  0  0  0  0  0  0  0  0  0  0  0
   -0.9623  -12.4808   20.3387 C   0  0  0  0  0  0  0  0  0  0  0  0
   10.0018   -3.7628   16.5745 F   0  0  0  0  0  0  0  0  0  0  0  0
    1.4861  -11.6201   20.2089 N   0  0  0  0  0  0  0  0  0  0  0  0
   13.5739   -5.2125   23.0342 He  0  0  0  0  0  0  0  0  0  0  0  0
    6.2102   -8.1759   16.1213 He  0  0  0  0  0  0  0  0  0  0  0  0
   -0.3196  -11.2198   17.5247 He  0  0  0  0  0  0  0  0  0  0  0  0
    0.9338  -11.1215   18.8420 He  0  0  0  0  0  0  0  0  0  0  0  0
    8.5504   -5.7688   16.5444 He  0  0  0  0  0  0  0  0  0  0  0  0
   12.2163   -4.7081   20.4726 He  0  0  0  0  0  0  0  0  0  0  0  0
  1 10  4  0
  1 11  3  0
  1 18  4  0
  2 11  2  0
  2 23  1  0
  3  4  4  0
  3 11  2  0
  3 23  4  0
  3 28  2  0
  4  6  4  0
  4  7  3  0
  4 14  1  0
  4 19  1  0
  5  8  4  0
  5 13  4  0
  5 19  2  0
  6 16  2  0
  6 24  4  0
  7  8  4  0
  7 17  3  0
  7 21  4  0
  8 13  3  0
  8 25  3  0
  9 22  1  0
  9 23  4  0
  9 24  4  0
  9 26  1  0
 10 23  4  0
 10 28  2  0
 11 17  4  0
 11 28  4  0
 12 14  1  0
 12 18  2  0
 13 17  4  0
 13 27  4  0
 14 20  2  0
 16 17  1  0
 17 27  1  0
 18 19  4  0
 18 25  4  0
 18 28  4  0
 20 27  4  0
 20 28  4  0
 21 22  4  0
 23 25  2  0
 25 26  4  0
M  END
$$$$

 Created by Python create_sdf_string function

 34 38  0  0  0  0  0  0  0  0999 V2000
   13.6780   -5.0755   23.2045 C   0  0  0  0  0  0  0  0  0  0  0  0
    1.5263  -10.6588   17.9715 C   0  0  0  0  0  0  0  0  0  0  0  0
    9.2418   -7.3128   18.1660 C   0  0  0  0  0  0  0  0  0  0  0  0
    3.8935  -10.2075   18.1832 N   0  0  0  0  0  0  0  0  0  0  0  0
    5.0244   -9.6444   17.7512 N   0  0  0  0  0  0  0  0  0  0  0  0
   11.6045   -3.9252   23.5370 C   0  0  0  0  0  0  0  0  0  0  0  0
    5.0746   -8.7780   16.6791 C   0  0  0  0  0  0  0  0  0  0  0  0
   12.2275   -4.6725   21.4299 C   0  0  0  0  0  0  0  0  0  0  0  0
   11.3023   -4.0380   22.2226 N   0  0  0  0  0  0  0  0  0  0  0  0
    6.2867   -8.1976   16.1082 C   0  0  0  0  0  0  0  0  0  0  0  0
    2.7338   -9.1379   16.5175 C   0  0  0  0  0  0  0  0  0  0  0  0
    0.4450  -10.6909   17.1374 N   0  0  0  0  0  0  0  0  0  0  0  0
    9.3593   -5.9090   17.6873 C   0  0  0  0  0  0  0  0  0  0  0  0
    7.7151   -6.2517   15.7529 C   0  0  0  0  0  0  0  0  0  0  0  0
   10.5692   -3.8000   17.7350 C   0  0  0  0  0  0  0  0  0  0  0  0
    6.5651   -6.8717   16.2988 N   0  0  0  0  0  0  0  0  0  0  0  0
   -0.5983  -11.3189   17.7494 N   0  0  0  0  0  0  0  0  0  0  0  0
   -0.2126  -11.7763   18.9982 C   0  0  0  0  0  0  0  0  0  0  0  0
   10.7477   -5.3202   19.6811 C   0  0  0  0  0  0  0  0  0  0  0  0
   10.2383   -5.0316   18.3485 C   0  0  0  0  0  0  0  0  0  0  0  0
    1.1273  -11.3288   19.1556 N   0  0  0  0  0  0  0  0  0  0  0  0
    1.0801  -12.3283   21.2811 C   0  0  0  0  0  0  0  0  0  0  0  0
   13.4062   -5.1980   21.8891 C   0  0  0  0  0  0  0  0  0  0  0  0
    9.0230   -4.2879   16.0164 C   0  0  0  0  0  0  0  0  0  0  0  0
    7.0142   -8.9673   15.5836 O   0  0  0  0  0  0  0  0  0  0  0  0
   12.7279   -4.4948   24.0123 C   0  0  0  0  0  0  0  0  0  0  0  0
    2.7307  -10.0085   17.5849 C   0  0  0  0  0  0  0  0  0  0  0  0
    3.8657   -8.5115   16.0665 C   0  0  0  0  0  0  0  0  0  0  0  0
    8.6805   -5.5092   16.5380 C   0  0  0  0  0  0  0  0  0  0  0  0
   -0.1987  -12.7888   21.1360 N   0  0  0  0  0  0  0  0  0  0  0  0
   -0.8684  -12.5503   20.0419 C   0  0  0  0  0  0  0  0  0  0  0  0
    9.9281   -3.4721   16.5730 C   0  0  0  0  0  0  0  0  0  0  0  0
    1.7608  -11.5896   20.3316 N   0  0  0  0  0  0  0  0  0  0  0  0
   11.9934   -4.6882   20.0072 O   0  0  0  0  0  0  0  0  0  0  0  0
  1 23  4  0
  1 26  4  0
  2 12  4  0
  2 21  4  0
  2 27  1  0
  3 13  1  0
  4  5  4  0
  4 27  4  0
  5  7  4  0
  6  9  4  0
  6 26  4  0
  7 10  1  0
  7 28  4  0
  8  9  4  0
  8 23  4  0
  8 34  1  0
 10 16  1  0
 10 25  2  0
 11 27  4  0
 11 28  4  0
 12 17  4  0
 13 20  4  0
 13 29  4  0
 14 16  1  0
 14 29  1  0
 15 20  4  0
 15 32  4  0
 17 18  4  0
 18 21  4  0
 18 31  4  0
 19 20  1  0
 19 34  1  0
 21 33  4  0
 22 30  4  0
 22 33  4  0
 24 29  4  0
 24 32  4  0
 30 31  4  0
M  END
$$$$

 Created by Python create_sdf_string function

 34 56  0  0  0  0  0  0  0  0999 V2000
   13.2961   -5.1575   23.1815 C   0  0  0  0  0  0  0  0  0  0  0  0
    1.5285  -10.3782   18.2016 C   0  0  0  0  0  0  0  0  0  0  0  0
    9.4982   -7.1605   18.3496 C   0  0  0  0  0  0  0  0  0  0  0  0
    3.7011   -9.8600   18.1423 N   0  0  0  0  0  0  0  0  0  0  0  0
    4.7453   -9.5209   17.6156 N   0  0  0  0  0  0  0  0  0  0  0  0
   11.9040   -4.0681   23.8573 N   0  0  0  0  0  0  0  0  0  0  0  0
   11.8272   -4.7150   21.2807 C   0  0  0  0  0  0  0  0  0  0  0  0
   11.2614   -4.0612   22.3592 N   0  0  0  0  0  0  0  0  0  0  0  0
    6.1896   -8.5706   15.7763 C   0  0  0  0  0  0  0  0  0  0  0  0
    2.9892   -9.1627   17.1055 C   0  0  0  0  0  0  0  0  0  0  0  0
    0.4616  -10.9555   17.2176 N   0  0  0  0  0  0  0  0  0  0  0  0
    9.2628   -5.6639   17.5283 P   0  0  0  0  0  0  0  0  0  0  0  0
    7.4105   -5.8373   15.8256 C   0  0  0  0  0  0  0  0  0  0  0  0
   10.5660   -3.7099   17.9750 C   0  0  0  0  0  0  0  0  0  0  0  0
    6.1817   -6.9524   15.8184 N   0  0  0  0  0  0  0  0  0  0  0  0
   -0.3819  -11.6088   17.8604 N   0  0  0  0  0  0  0  0  0  0  0  0
   -0.5820  -12.0413   19.1221 C   0  0  0  0  0  0  0  0  0  0  0  0
   10.5486   -5.5137   19.8867 C   0  0  0  0  0  0  0  0  0  0  0  0
   10.2761   -5.2047   18.0456 F   0  0  0  0  0  0  0  0  0  0  0  0
    0.7663  -10.9990   19.3447 N   0  0  0  0  0  0  0  0  0  0  0  0
    8.8578   -4.2761   15.7696 F   0  0  0  0  0  0  0  0  0  0  0  0
    6.8317   -9.2228   15.5957 O   0  0  0  0  0  0  0  0  0  0  0  0
   13.0843   -4.2800   24.0677 C   0  0  0  0  0  0  0  0  0  0  0  0
    2.7895   -9.7965   17.5194 C   0  0  0  0  0  0  0  0  0  0  0  0
    3.6707   -8.6624   15.9939 C   0  0  0  0  0  0  0  0  0  0  0  0
    8.5196   -5.3606   16.5604 C   0  0  0  0  0  0  0  0  0  0  0  0
   -0.2892  -12.9258   21.0751 N   0  0  0  0  0  0  0  0  0  0  0  0
   -0.9102  -12.3915   20.1883 C   0  0  0  0  0  0  0  0  0  0  0  0
    9.9415   -3.3769   16.6374 C   0  0  0  0  0  0  0  0  0  0  0  0
    1.8420  -11.5596   20.2737 N   0  0  0  0  0  0  0  0  0  0  0  0
   12.0709   -4.7702   20.1056 O   0  0  0  0  0  0  0  0  0  0  0  0
    5.3063   -8.7095   16.7064 He  0  0  0  0  0  0  0  0  0  0  0  0
    0.9230  -12.2055   21.4048 He  0  0  0  0  0  0  0  0  0  0  0  0
   13.5034   -5.6402   22.4608 He  0  0  0  0  0  0  0  0  0  0  0  0
  1  9  4  0
  1 15  3  0
  1 16  1  0
  1 20  4  0
  2  3  1  0
  2 17  4  0
  2 24  1  0
  3 11  2  0
  3 12  1  0
  3 16  1  0
  3 24  3  0
  4  5  4  0
  4  8  3  0
  4 21  1  0
  4 24  4  0
  5 16  3  0
  5 26  4  0
  6  8  4  0
  6 13  1  0
  6 17  4  0
  6 25  3  0
  7  8  4  0
  7 18  4  0
  7 20  4  0
  7 30  1  0
  7 31  1  0
  9 19  1  0
 10 17  4  0
 10 20  1  0
 10 24  4  0
 10 25  4  0
 11 16  4  0
 12 17  2  0
 12 19  4  0
 12 23  3  0
 12 26  4  0
 13 15  1  0
 13 17  4  0
 13 26  1  0
 14 19  4  0
 15 27  3  0
 16 17  4  0
 17 20  4  0
 17 28  4  0
 17 31  1  0
 18 19  1  0
 18 31  1  0
 20 24  1  0
 20 30  4  0
 20 31  1  0
 21 26  4  0
 21 29  4  0
 22 29  2  0
 25 27  3  0
 25 30  2  0
 27 28  4  0
M  END
$$$$

 Created by Python create_sdf_string function

 34 38  0  0  0  0  0  0  0  0999 V2000
   13.6535   -5.1792   23.3192 C   0  0  0  0  0  0  0  0  0  0  0  0
    1.4712  -10.6308   18.0733 C   0  0  0  0  0  0  0  0  0  0  0  0
    9.1742   -7.2530   18.1356 C   0  0  0  0  0  0  0  0  0  0  0  0
    3.8361  -10.0968   18.2129 N   0  0  0  0  0  0  0  0  0  0  0  0
    4.9210   -9.6109   17.7001 N   0  0  0  0  0  0  0  0  0  0  0  0
   11.6780   -3.8583   23.6878 C   0  0  0  0  0  0  0  0  0  0  0  0
    4.9823   -8.7939   16.6189 C   0  0  0  0  0  0  0  0  0  0  0  0
   12.0784   -4.7951   21.5799 C   0  0  0  0  0  0  0  0  0  0  0  0
   11.2723   -4.1162   22.4086 N   0  0  0  0  0  0  0  0  0  0  0  0
    6.2153   -8.2884   15.9981 C   0  0  0  0  0  0  0  0  0  0  0  0
    2.6249   -9.0670   16.5879 C   0  0  0  0  0  0  0  0  0  0  0  0
    0.4099  -10.7887   17.2065 N   0  0  0  0  0  0  0  0  0  0  0  0
    9.3110   -5.8498   17.6421 C   0  0  0  0  0  0  0  0  0  0  0  0
    7.6035   -6.1826   15.8435 C   0  0  0  0  0  0  0  0  0  0  0  0
   10.5500   -3.8044   17.7110 C   0  0  0  0  0  0  0  0  0  0  0  0
    6.4346   -6.9390   16.0249 N   0  0  0  0  0  0  0  0  0  0  0  0
   -0.5886  -11.5333   17.8011 N   0  0  0  0  0  0  0  0  0  0  0  0
   -0.1888  -11.8320   19.0657 C   0  0  0  0  0  0  0  0  0  0  0  0
   10.6479   -5.3510   19.6564 C   0  0  0  0  0  0  0  0  0  0  0  0
   10.1817   -4.9916   18.2958 C   0  0  0  0  0  0  0  0  0  0  0  0
    1.0839  -11.2690   19.2548 N   0  0  0  0  0  0  0  0  0  0  0  0
    1.0204  -12.1925   21.4169 C   0  0  0  0  0  0  0  0  0  0  0  0
   13.2636   -5.3748   22.0135 C   0  0  0  0  0  0  0  0  0  0  0  0
    8.9428   -4.2316   15.9707 C   0  0  0  0  0  0  0  0  0  0  0  0
    6.9578   -9.0905   15.5619 O   0  0  0  0  0  0  0  0  0  0  0  0
   12.8560   -4.4038   24.1216 C   0  0  0  0  0  0  0  0  0  0  0  0
    2.6339   -9.9427   17.6569 C   0  0  0  0  0  0  0  0  0  0  0  0
    3.7584   -8.4974   16.0932 C   0  0  0  0  0  0  0  0  0  0  0  0
    8.6209   -5.4369   16.5189 C   0  0  0  0  0  0  0  0  0  0  0  0
   -0.2340  -12.7182   21.2659 N   0  0  0  0  0  0  0  0  0  0  0  0
   -0.8637  -12.5563   20.1082 C   0  0  0  0  0  0  0  0  0  0  0  0
    9.9455   -3.4296   16.5023 C   0  0  0  0  0  0  0  0  0  0  0  0
    1.6846  -11.4307   20.4579 N   0  0  0  0  0  0  0  0  0  0  0  0
   11.7784   -4.8232   20.1823 O   0  0  0  0  0  0  0  0  0  0  0  0
  1 23  4  0
  1 26  4  0
  2 12  4  0
  2 21  4  0
  2 27  1  0
  3 13  1  0
  4  5  4  0
  4 27  4  0
  5  7  4  0
  6  9  4  0
  6 26  4  0
  7 10  1  0
  7 28  4  0
  8  9  4  0
  8 23  4  0
  8 34  1  0
 10 16  1  0
 10 25  2  0
 11 27  4  0
 11 28  4  0
 12 17  4  0
 13 20  4  0
 13 29  4  0
 14 16  1  0
 14 29  1  0
 15 20  4  0
 15 32  4  0
 17 18  4  0
 18 21  4  0
 18 31  4  0
 19 20  1  0
 19 34  1  0
 21 33  4  0
 22 30  4  0
 22 33  4  0
 24 29  4  0
 24 32  4  0
 30 31  4  0
M  END
$$$$

 Created by Python create_sdf_string function

 34 58  0  0  0  0  0  0  0  0999 V2000
   13.8200   -5.1934   23.4720 C   0  0  0  0  0  0  0  0  0  0  0  0
    1.4077  -10.6194   17.9525 C   0  0  0  0  0  0  0  0  0  0  0  0
    9.0078   -7.4500   18.0800 C   0  0  0  0  0  0  0  0  0  0  0  0
    4.8932   -9.6849   17.8525 N   0  0  0  0  0  0  0  0  0  0  0  0
   11.5842   -4.0044   23.5735 C   0  0  0  0  0  0  0  0  0  0  0  0
    5.2111   -8.8149   16.4594 C   0  0  0  0  0  0  0  0  0  0  0  0
   12.4354   -4.5960   21.7519 C   0  0  0  0  0  0  0  0  0  0  0  0
   11.3670   -4.0191   22.6844 N   0  0  0  0  0  0  0  0  0  0  0  0
    6.0078   -8.1467   15.7041 C   0  0  0  0  0  0  0  0  0  0  0  0
    2.7204   -8.6290   16.5495 N   0  0  0  0  0  0  0  0  0  0  0  0
    0.3878  -10.7470   17.3658 N   0  0  0  0  0  0  0  0  0  0  0  0
    7.8110   -6.0176   15.9590 C   0  0  0  0  0  0  0  0  0  0  0  0
   10.2135   -3.5631   18.0583 C   0  0  0  0  0  0  0  0  0  0  0  0
    6.4057   -6.7990   15.8099 N   0  0  0  0  0  0  0  0  0  0  0  0
   10.5100   -5.1473   19.5685 C   0  0  0  0  0  0  0  0  0  0  0  0
    9.5724   -5.3310   18.1041 C   0  0  0  0  0  0  0  0  0  0  0  0
    0.8577  -10.9789   19.1654 N   0  0  0  0  0  0  0  0  0  0  0  0
    0.8818  -12.4955   21.2273 C   0  0  0  0  0  0  0  0  0  0  0  0
   13.0426   -5.5565   21.8747 C   0  0  0  0  0  0  0  0  0  0  0  0
    9.2154   -4.1413   16.1133 C   0  0  0  0  0  0  0  0  0  0  0  0
    7.0137   -9.0913   15.4535 O   0  0  0  0  0  0  0  0  0  0  0  0
   12.6450   -4.4409   24.0683 C   0  0  0  0  0  0  0  0  0  0  0  0
    2.5074  -10.0344   17.4982 C   0  0  0  0  0  0  0  0  0  0  0  0
    3.6026   -8.5522   15.8433 C   0  0  0  0  0  0  0  0  0  0  0  0
    8.9529   -5.5786   16.2326 C   0  0  0  0  0  0  0  0  0  0  0  0
   -0.5698  -12.9327   21.2193 N   0  0  0  0  0  0  0  0  0  0  0  0
   -0.9318  -12.7767   20.1672 C   0  0  0  0  0  0  0  0  0  0  0  0
    9.8689   -3.3336   16.5709 C   0  0  0  0  0  0  0  0  0  0  0  0
    1.5707  -11.7307   20.7569 N   0  0  0  0  0  0  0  0  0  0  0  0
   11.7672   -5.0321   20.0000 O   0  0  0  0  0  0  0  0  0  0  0  0
    3.6573   -9.9870   18.3738 He  0  0  0  0  0  0  0  0  0  0  0  0
    9.1964   -5.5690   17.8143 He  0  0  0  0  0  0  0  0  0  0  0  0
   -0.2697  -11.3550   17.7026 He  0  0  0  0  0  0  0  0  0  0  0  0
   -0.2872  -11.7281   19.1073 He  0  0  0  0  0  0  0  0  0  0  0  0
  1 19  4  0
  1 22  4  0
  1 25  4  0
  2  3  3  0
  2 11  4  0
  2 17  4  0
  3 11  3  0
  3 17  2  0
  4  6  4  0
  4  8  3  0
  4 14  4  0
  5  8  4  0
  5  9  4  0
  5 11  3  0
  5 19  2  0
  5 22  4  0
  5 29  1  0
  6  9  1  0
  6 24  4  0
  6 27  2  0
  7  8  4  0
  7 11  2  0
  7 15  4  0
  7 19  4  0
  7 30  1  0
  8 11  4  0
  8 24  3  0
  9 10  4  0
  9 14  1  0
  9 21  2  0
 10 16  2  0
 10 23  4  0
 10 24  4  0
 11 20  3  0
 11 24  3  0
 11 29  1  0
 12 14  1  0
 12 17  4  0
 12 25  1  0
 12 30  4  0
 13 16  4  0
 13 28  4  0
 14 19  3  0
 15 16  1  0
 15 17  3  0
 15 24  1  0
 15 27  3  0
 15 30  1  0
 16 27  1  0
 17 29  4  0
 18 26  4  0
 18 29  4  0
 20 25  4  0
 20 28  1  0
 21 27  2  0
 25 27  4  0
 26 27  4  0
 29 30  3  0
M  END
$$$$

 Created by Python create_sdf_string function

 34 38  0  0  0  0  0  0  0  0999 V2000
   13.6060   -5.2263   23.3008 C   0  0  0  0  0  0  0  0  0  0  0  0
    1.4290  -10.5696   18.0479 C   0  0  0  0  0  0  0  0  0  0  0  0
    8.9843   -7.2174   18.0711 C   0  0  0  0  0  0  0  0  0  0  0  0
    3.8265  -10.1004   18.1665 C   0  0  0  0  0  0  0  0  0  0  0  0
    4.9478   -9.5699   17.6328 N   0  0  0  0  0  0  0  0  0  0  0  0
   11.6064   -3.9195   23.6770 C   0  0  0  0  0  0  0  0  0  0  0  0
    4.9525   -8.7405   16.5641 C   0  0  0  0  0  0  0  0  0  0  0  0
   12.0612   -4.7653   21.5619 C   0  0  0  0  0  0  0  0  0  0  0  0
   11.2454   -4.0825   22.3785 N   0  0  0  0  0  0  0  0  0  0  0  0
    6.2091   -8.2514   15.9659 C   0  0  0  0  0  0  0  0  0  0  0  0
    2.5784   -9.0486   16.4994 N   0  0  0  0  0  0  0  0  0  0  0  0
    0.3776  -10.6519   17.2056 N   0  0  0  0  0  0  0  0  0  0  0  0
    9.2446   -5.8266   17.6524 C   0  0  0  0  0  0  0  0  0  0  0  0
    7.7210   -6.2835   15.6508 C   0  0  0  0  0  0  0  0  0  0  0  0
   10.3287   -3.6959   17.8482 C   0  0  0  0  0  0  0  0  0  0  0  0
    6.5284   -6.9126   16.0913 N   0  0  0  0  0  0  0  0  0  0  0  0
   -0.6050  -11.4167   17.7726 N   0  0  0  0  0  0  0  0  0  0  0  0
   -0.2240  -11.8167   19.0264 C   0  0  0  0  0  0  0  0  0  0  0  0
   10.4618   -5.2530   19.7439 C   0  0  0  0  0  0  0  0  0  0  0  0
   10.0518   -4.9277   18.3756 C   0  0  0  0  0  0  0  0  0  0  0  0
    1.0481  -11.2894   19.2451 N   0  0  0  0  0  0  0  0  0  0  0  0
    0.9053  -12.3403   21.3743 C   0  0  0  0  0  0  0  0  0  0  0  0
   13.2442   -5.3160   21.9706 C   0  0  0  0  0  0  0  0  0  0  0  0
    9.0502   -4.2537   15.8962 C   0  0  0  0  0  0  0  0  0  0  0  0
    6.8943   -9.0641   15.4704 O   0  0  0  0  0  0  0  0  0  0  0  0
   12.7422   -4.5098   24.1613 C   0  0  0  0  0  0  0  0  0  0  0  0
    2.5960   -9.9010   17.5926 C   0  0  0  0  0  0  0  0  0  0  0  0
    3.7067   -8.4862   16.0576 C   0  0  0  0  0  0  0  0  0  0  0  0
    8.6618   -5.4305   16.4491 C   0  0  0  0  0  0  0  0  0  0  0  0
   -0.3385  -12.8885   21.1408 N   0  0  0  0  0  0  0  0  0  0  0  0
   -0.9129  -12.5916   19.9996 C   0  0  0  0  0  0  0  0  0  0  0  0
    9.8835   -3.3945   16.5510 C   0  0  0  0  0  0  0  0  0  0  0  0
    1.6201  -11.5428   20.4877 N   0  0  0  0  0  0  0  0  0  0  0  0
   11.7387   -4.8221   20.1515 O   0  0  0  0  0  0  0  0  0  0  0  0
  1 23  4  0
  1 26  4  0
  2 12  4  0
  2 21  4  0
  2 27  1  0
  3 13  1  0
  4  5  4  0
  4 27  4  0
  5  7  4  0
  6  9  4  0
  6 26  4  0
  7 10  1  0
  7 28  4  0
  8  9  4  0
  8 23  4  0
  8 34  1  0
 10 16  1  0
 10 25  2  0
 11 27  4  0
 11 28  4  0
 12 17  4  0
 13 20  4  0
 13 29  4  0
 14 16  1  0
 14 29  1  0
 15 20  4  0
 15 32  4  0
 17 18  4  0
 18 21  4  0
 18 31  4  0
 19 20  1  0
 19 34  1  0
 21 33  4  0
 22 30  4  0
 22 33  4  0
 24 29  4  0
 24 32  4  0
 30 31  4  0
M  END
$$$$

 Created by Python create_sdf_string function

 34 57  0  0  0  0  0  0  0  0999 V2000
   13.6689   -4.8514   23.2051 C   0  0  0  0  0  0  0  0  0  0  0  0
    1.1547  -10.4230   18.1183 C   0  0  0  0  0  0  0  0  0  0  0  0
    3.9848  -10.1704   18.3609 C   0  0  0  0  0  0  0  0  0  0  0  0
    4.7870   -9.4804   17.6871 N   0  0  0  0  0  0  0  0  0  0  0  0
   11.4979   -3.8838   23.9008 C   0  0  0  0  0  0  0  0  0  0  0  0
    5.2806   -8.8078   16.6779 C   0  0  0  0  0  0  0  0  0  0  0  0
   12.1455   -4.6227   21.6624 C   0  0  0  0  0  0  0  0  0  0  0  0
   11.2372   -4.2690   22.1083 N   0  0  0  0  0  0  0  0  0  0  0  0
    2.4239   -9.2044   16.5672 N   0  0  0  0  0  0  0  0  0  0  0  0
    0.1212  -10.7408   17.4435 N   0  0  0  0  0  0  0  0  0  0  0  0
    7.8697   -6.3822   15.6774 C   0  0  0  0  0  0  0  0  0  0  0  0
   10.1657   -3.6313   17.7836 C   0  0  0  0  0  0  0  0  0  0  0  0
    6.4894   -6.8784   15.9279 N   0  0  0  0  0  0  0  0  0  0  0  0
   -0.7414  -11.0880   17.9106 C   0  0  0  0  0  0  0  0  0  0  0  0
   10.0559   -5.4428   20.0583 P   0  0  0  0  0  0  0  0  0  0  0  0
   10.3167   -5.0386   18.5871 C   0  0  0  0  0  0  0  0  0  0  0  0
    1.1923  -11.0389   19.2111 N   0  0  0  0  0  0  0  0  0  0  0  0
    0.8976  -12.3267   21.5479 Cl  0  0  0  0  0  0  0  0  0  0  0  0
   12.8295   -5.2044   22.0086 C   0  0  0  0  0  0  0  0  0  0  0  0
    8.8462   -4.4160   15.7773 P   0  0  0  0  0  0  0  0  0  0  0  0
   12.8773   -4.4251   24.1469 C   0  0  0  0  0  0  0  0  0  0  0  0
    3.9026   -8.2793   16.1957 C   0  0  0  0  0  0  0  0  0  0  0  0
    8.5191   -5.2598   16.6140 C   0  0  0  0  0  0  0  0  0  0  0  0
   -0.2432  -13.1029   21.3708 N   0  0  0  0  0  0  0  0  0  0  0  0
   -1.1876  -12.6854   19.6764 P   0  0  0  0  0  0  0  0  0  0  0  0
   10.1866   -3.4139   16.7736 C   0  0  0  0  0  0  0  0  0  0  0  0
    1.4999  -11.7274   20.1325 N   0  0  0  0  0  0  0  0  0  0  0  0
   11.7261   -4.9237   20.1481 O   0  0  0  0  0  0  0  0  0  0  0  0
    8.6478   -7.5046   18.3582 He  0  0  0  0  0  0  0  0  0  0  0  0
    6.1945   -8.7090   15.6570 He  0  0  0  0  0  0  0  0  0  0  0  0
    9.0761   -5.6997   17.3541 He  0  0  0  0  0  0  0  0  0  0  0  0
   -0.0722  -11.9514   18.6738 He  0  0  0  0  0  0  0  0  0  0  0  0
    6.8140   -8.7415   15.2968 He  0  0  0  0  0  0  0  0  0  0  0  0
    2.3955   -9.7417   17.5681 He  0  0  0  0  0  0  0  0  0  0  0  0
  1  5  3  0
  1  6  4  0
  1  7  3  0
  1 17  4  0
  1 19  4  0
  1 21  4  0
  2  4  3  0
  2  9  3  0
  2 10  4  0
  2 16  1  0
  2 17  4  0
  2 22  1  0
  3  4  4  0
  3 22  1  0
  3 28  2  0
  4  6  4  0
  4  7  2  0
  4 18  2  0
  4 19  2  0
  5  8  4  0
  5 11  3  0
  5 21  4  0
  6  8  3  0
  6 13  4  0
  6 22  4  0
  6 26  1  0
  7  8  4  0
  7 16  1  0
  7 19  4  0
  7 23  2  0
  7 28  1  0
  8 13  1  0
  8 25  2  0
  9 13  2  0
 10 14  4  0
 10 25  1  0
 11 13  3  0
 11 19  4  0
 11 22  3  0
 11 23  1  0
 12 16  4  0
 12 18  1  0
 12 20  4  0
 12 26  4  0
 13 26  1  0
 15 16  1  0
 15 28  1  0
 16 28  3  0
 17 27  4  0
 18 27  3  0
 20 21  1  0
 20 23  4  0
 20 26  4  0
 21 24  2  0
 22 28  1  0
 24 25  4  0
 25 26  3  0
M  END
$$$$

 Created by Python create_sdf_string function

 34 38  0  0  0  0  0  0  0  0999 V2000
   13.6245   -4.9889   23.2261 C   0  0  0  0  0  0  0  0  0  0  0  0
    1.3908  -10.5332   18.0205 C   0  0  0  0  0  0  0  0  0  0  0  0
    8.8130   -7.2744   18.2865 F   0  0  0  0  0  0  0  0  0  0  0  0
    3.8017  -10.1679   18.1762 C   0  0  0  0  0  0  0  0  0  0  0  0
    4.9388   -9.6387   17.6812 N   0  0  0  0  0  0  0  0  0  0  0  0
   11.4996   -3.9332   23.7197 C   0  0  0  0  0  0  0  0  0  0  0  0
    4.9622   -8.8043   16.6129 C   0  0  0  0  0  0  0  0  0  0  0  0
   11.9421   -4.7276   21.5748 C   0  0  0  0  0  0  0  0  0  0  0  0
   11.0908   -4.1726   22.4337 N   0  0  0  0  0  0  0  0  0  0  0  0
    6.2272   -8.3070   15.9771 C   0  0  0  0  0  0  0  0  0  0  0  0
    2.5975   -8.9812   16.5571 N   0  0  0  0  0  0  0  0  0  0  0  0
    0.2745  -10.4424   17.2573 N   0  0  0  0  0  0  0  0  0  0  0  0
    9.1454   -5.8570   17.7263 C   0  0  0  0  0  0  0  0  0  0  0  0
    7.7716   -6.3626   15.6554 C   0  0  0  0  0  0  0  0  0  0  0  0
   10.4293   -3.7960   17.8013 C   0  0  0  0  0  0  0  0  0  0  0  0
    6.6134   -6.9733   16.1240 N   0  0  0  0  0  0  0  0  0  0  0  0
   -0.7094  -11.2481   17.7805 N   0  0  0  0  0  0  0  0  0  0  0  0
   -0.2682  -11.7740   18.9725 C   0  0  0  0  0  0  0  0  0  0  0  0
   10.3738   -5.2794   19.8143 C   0  0  0  0  0  0  0  0  0  0  0  0
    9.9942   -4.9730   18.4113 C   0  0  0  0  0  0  0  0  0  0  0  0
    1.0385  -11.2812   19.1867 N   0  0  0  0  0  0  0  0  0  0  0  0
    0.9404  -12.3605   21.2940 C   0  0  0  0  0  0  0  0  0  0  0  0
   13.1914   -5.1397   21.9451 C   0  0  0  0  0  0  0  0  0  0  0  0
    9.0403   -4.2998   15.9127 C   0  0  0  0  0  0  0  0  0  0  0  0
    6.8266   -9.0995   15.4128 O   0  0  0  0  0  0  0  0  0  0  0  0
   12.7447   -4.3498   24.1039 C   0  0  0  0  0  0  0  0  0  0  0  0
    2.5938   -9.8954   17.5818 C   0  0  0  0  0  0  0  0  0  0  0  0
    3.7221   -8.4996   16.1084 C   0  0  0  0  0  0  0  0  0  0  0  0
    8.6659   -5.4865   16.4803 C   0  0  0  0  0  0  0  0  0  0  0  0
   -0.2764  -12.9330   21.0535 N   0  0  0  0  0  0  0  0  0  0  0  0
   -0.8985  -12.6582   19.8965 C   0  0  0  0  0  0  0  0  0  0  0  0
    9.9484   -3.4709   16.5505 C   0  0  0  0  0  0  0  0  0  0  0  0
    1.5939  -11.5772   20.3913 N   0  0  0  0  0  0  0  0  0  0  0  0
   11.6242   -4.8291   20.1946 O   0  0  0  0  0  0  0  0  0  0  0  0
  1 23  4  0
  1 26  4  0
  2 12  4  0
  2 21  4  0
  2 27  1  0
  3 13  1  0
  4  5  4  0
  4 27  4  0
  5  7  4  0
  6  9  4  0
  6 26  4  0
  7 10  1  0
  7 28  4  0
  8  9  4  0
  8 23  4  0
  8 34  1  0
 10 16  1  0
 10 25  2  0
 11 27  4  0
 11 28  4  0
 12 17  4  0
 13 20  4  0
 13 29  4  0
 14 16  1  0
 14 29  1  0
 15 20  4  0
 15 32  4  0
 17 18  4  0
 18 21  4  0
 18 31  4  0
 19 20  1  0
 19 34  1  0
 21 33  4  0
 22 30  4  0
 22 33  4  0
 24 29  4  0
 24 32  4  0
 30 31  4  0
M  END
$$$$

 Created by Python create_sdf_string function

 34 67  0  0  0  0  0  0  0  0999 V2000
   13.5135   -5.0795   23.3178 C   0  0  0  0  0  0  0  0  0  0  0  0
    1.3600  -10.2844   18.0133 C   0  0  0  0  0  0  0  0  0  0  0  0
    8.8488   -6.9576   18.2290 F   0  0  0  0  0  0  0  0  0  0  0  0
    3.7638   -9.9127   17.9575 C   0  0  0  0  0  0  0  0  0  0  0  0
    5.0927   -9.6568   17.4513 N   0  0  0  0  0  0  0  0  0  0  0  0
   11.7474   -3.7690   23.9153 C   0  0  0  0  0  0  0  0  0  0  0  0
    4.4220   -8.8503   16.4891 C   0  0  0  0  0  0  0  0  0  0  0  0
   11.9929   -4.5674   21.8668 C   0  0  0  0  0  0  0  0  0  0  0  0
   10.9527   -4.4672   22.7677 N   0  0  0  0  0  0  0  0  0  0  0  0
    6.3119   -8.3431   16.0189 C   0  0  0  0  0  0  0  0  0  0  0  0
    2.7340   -8.9839   16.2866 N   0  0  0  0  0  0  0  0  0  0  0  0
    0.1653  -10.5576   17.1784 N   0  0  0  0  0  0  0  0  0  0  0  0
    9.4162   -5.9691   17.9207 C   0  0  0  0  0  0  0  0  0  0  0  0
    7.8051   -6.4691   15.4960 C   0  0  0  0  0  0  0  0  0  0  0  0
   10.4778   -3.7939   17.8081 O   0  0  0  0  0  0  0  0  0  0  0  0
    6.7392   -6.9274   15.7620 N   0  0  0  0  0  0  0  0  0  0  0  0
   -1.0335  -11.2332   17.8922 N   0  0  0  0  0  0  0  0  0  0  0  0
   -0.6371  -11.6817   19.2734 C   0  0  0  0  0  0  0  0  0  0  0  0
   10.1317   -5.1082   20.0145 C   0  0  0  0  0  0  0  0  0  0  0  0
   10.0462   -5.0393   18.5831 I   0  0  0  0  0  0  0  0  0  0  0  0
    1.0332  -11.2503   19.0504 N   0  0  0  0  0  0  0  0  0  0  0  0
    0.7597  -12.3001   21.1926 C   0  0  0  0  0  0  0  0  0  0  0  0
   13.1908   -5.3724   21.9618 C   0  0  0  0  0  0  0  0  0  0  0  0
    9.0219   -3.9952   15.8902 C   0  0  0  0  0  0  0  0  0  0  0  0
    7.1695   -9.0310   15.3750 O   0  0  0  0  0  0  0  0  0  0  0  0
   12.7203   -4.3758   24.3462 C   0  0  0  0  0  0  0  0  0  0  0  0
    2.7118   -9.8076   17.2194 C   0  0  0  0  0  0  0  0  0  0  0  0
    3.8740   -8.7260   16.2475 C   0  0  0  0  0  0  0  0  0  0  0  0
    8.7833   -5.6763   16.6829 C   0  0  0  0  0  0  0  0  0  0  0  0
   -0.2488  -12.7492   21.4288 F   0  0  0  0  0  0  0  0  0  0  0  0
   -0.7606  -12.9035   20.1002 C   0  0  0  0  0  0  0  0  0  0  0  0
    1.6487  -11.5092   20.0690 N   0  0  0  0  0  0  0  0  0  0  0  0
   11.5742   -4.8795   20.2696 O   0  0  0  0  0  0  0  0  0  0  0  0
    9.8109   -3.7270   16.6371 He  0  0  0  0  0  0  0  0  0  0  0  0
  1  4  1  0
  1  9  2  0
  1 10  4  0
  1 17  3  0
  1 18  1  0
  1 23  4  0
  1 26  4  0
  1 32  1  0
  2  6  1  0
  2  8  1  0
  2 11  3  0
  2 12  4  0
  2 27  1  0
  2 29  1  0
  2 30  3  0
  3 13  1  0
  3 18  2  0
  3 19  1  0
  3 33  3  0
  4  5  4  0
  4 14  2  0
  4 16  3  0
  4 27  4  0
  6  9  4  0
  6 10  4  0
  6 26  4  0
  7 10  1  0
  7 12  1  0
  7 28  2  0
  7 30  2  0
  8  9  4  0
  8 23  4  0
  8 33  1  0
  9 11  1  0
 10 13  1  0
 10 16  1  0
 10 17  1  0
 10 25  2  0
 11 13  3  0
 11 27  4  0
 11 28  4  0
 12 17  4  0
 13 20  4  0
 13 21  4  0
 13 29  4  0
 14 16  1  0
 14 29  1  0
 15 22  4  0
 16 28  1  0
 17 28  3  0
 18 21  4  0
 18 24  2  0
 18 31  4  0
 19 20  1  0
 19 32  3  0
 19 33  1  0
 21 24  1  0
 21 27  4  0
 21 29  2  0
 22 30  4  0
 22 32  4  0
 23 24  4  0
 24 29  4  0
 24 33  4  0
 25 26  3  0
 29 32  4  0
 30 31  4  0
M  END
$$$$

 Created by Python create_sdf_string function

 34 38  0  0  0  0  0  0  0  0999 V2000
   13.6126   -5.0652   23.3430 C   0  0  0  0  0  0  0  0  0  0  0  0
    1.3286  -10.4924   17.9240 C   0  0  0  0  0  0  0  0  0  0  0  0
    8.9100   -7.1349   18.3039 F   0  0  0  0  0  0  0  0  0  0  0  0
    3.7833  -10.1705   18.0096 C   0  0  0  0  0  0  0  0  0  0  0  0
    4.9438   -9.6419   17.5551 N   0  0  0  0  0  0  0  0  0  0  0  0
   11.5224   -3.9712   23.9164 C   0  0  0  0  0  0  0  0  0  0  0  0
    4.9802   -8.8033   16.4933 C   0  0  0  0  0  0  0  0  0  0  0  0
   11.8857   -4.7593   21.7311 C   0  0  0  0  0  0  0  0  0  0  0  0
   11.0793   -4.1544   22.6280 N   0  0  0  0  0  0  0  0  0  0  0  0
    6.3056   -8.3317   15.9326 C   0  0  0  0  0  0  0  0  0  0  0  0
    2.6191   -9.0324   16.3673 N   0  0  0  0  0  0  0  0  0  0  0  0
    0.1796  -10.4629   17.2338 N   0  0  0  0  0  0  0  0  0  0  0  0
    9.1911   -5.8769   17.7688 C   0  0  0  0  0  0  0  0  0  0  0  0
    7.9419   -6.5086   15.6372 C   0  0  0  0  0  0  0  0  0  0  0  0
   10.4211   -3.7901   17.8503 C   0  0  0  0  0  0  0  0  0  0  0  0
    6.6763   -7.0133   16.1015 N   0  0  0  0  0  0  0  0  0  0  0  0
   -0.8340  -11.2224   17.8573 N   0  0  0  0  0  0  0  0  0  0  0  0
   -0.3336  -11.7171   19.0510 C   0  0  0  0  0  0  0  0  0  0  0  0
   10.2595   -5.1161   19.9021 C   0  0  0  0  0  0  0  0  0  0  0  0
    9.9793   -4.9598   18.4694 C   0  0  0  0  0  0  0  0  0  0  0  0
    0.9855  -11.2300   19.1333 N   0  0  0  0  0  0  0  0  0  0  0  0
    1.0880  -12.2276   21.3010 C   0  0  0  0  0  0  0  0  0  0  0  0
   13.1389   -5.2495   22.0619 C   0  0  0  0  0  0  0  0  0  0  0  0
    9.0755   -4.3478   15.9517 C   0  0  0  0  0  0  0  0  0  0  0  0
    7.0040   -9.1738   15.4954 O   0  0  0  0  0  0  0  0  0  0  0  0
   12.7901   -4.3995   24.2626 C   0  0  0  0  0  0  0  0  0  0  0  0
    2.5654   -9.8849   17.4195 C   0  0  0  0  0  0  0  0  0  0  0  0
    3.7756   -8.5170   15.9496 C   0  0  0  0  0  0  0  0  0  0  0  0
    8.7230   -5.5580   16.4983 C   0  0  0  0  0  0  0  0  0  0  0  0
   -0.1874  -12.7751   21.1762 C   0  0  0  0  0  0  0  0  0  0  0  0
   -0.9279  -12.5134   20.0835 C   0  0  0  0  0  0  0  0  0  0  0  0
    9.9651   -3.4885   16.5989 C   0  0  0  0  0  0  0  0  0  0  0  0
    1.6694  -11.4605   20.2963 N   0  0  0  0  0  0  0  0  0  0  0  0
   11.5308   -4.8198   20.3406 O   0  0  0  0  0  0  0  0  0  0  0  0
  1 23  4  0
  1 26  4  0
  2 12  4  0
  2 21  4  0
  2 27  1  0
  3 13  1  0
  4  5  4  0
  4 27  4  0
  5  7  4  0
  6  9  4  0
  6 26  4  0
  7 10  1  0
  7 28  4  0
  8  9  4  0
  8 23  4  0
  8 34  1  0
 10 16  1  0
 10 25  2  0
 11 27  4  0
 11 28  4  0
 12 17  4  0
 13 20  4  0
 13 29  4  0
 14 16  1  0
 14 29  1  0
 15 20  4  0
 15 32  4  0
 17 18  4  0
 18 21  4  0
 18 31  4  0
 19 20  1  0
 19 34  1  0
 21 33  4  0
 22 30  4  0
 22 33  4  0
 24 29  4  0
 24 32  4  0
 30 31  4  0
M  END
$$$$

 Created by Python create_sdf_string function

 34 62  0  0  0  0  0  0  0  0999 V2000
   13.6910   -5.1743   23.3290 C   0  0  0  0  0  0  0  0  0  0  0  0
    1.3087  -10.5429   17.7443 C   0  0  0  0  0  0  0  0  0  0  0  0
    8.7444   -7.0167   17.9722 F   0  0  0  0  0  0  0  0  0  0  0  0
    3.9596   -9.9817   18.1480 C   0  0  0  0  0  0  0  0  0  0  0  0
    5.3767   -9.7157   17.1257 N   0  0  0  0  0  0  0  0  0  0  0  0
   11.5823   -3.8729   23.8102 C   0  0  0  0  0  0  0  0  0  0  0  0
    5.0738   -8.5899   16.7169 C   0  0  0  0  0  0  0  0  0  0  0  0
   11.9824   -4.7785   21.6809 C   0  0  0  0  0  0  0  0  0  0  0  0
   11.0067   -4.3412   22.5912 Cl  0  0  0  0  0  0  0  0  0  0  0  0
    6.2339   -8.2661   16.0907 C   0  0  0  0  0  0  0  0  0  0  0  0
    2.6769   -9.1763   16.2395 N   0  0  0  0  0  0  0  0  0  0  0  0
    0.1921  -10.3887   17.2498 N   0  0  0  0  0  0  0  0  0  0  0  0
   10.5382   -3.7493   17.8403 C   0  0  0  0  0  0  0  0  0  0  0  0
    6.7770   -6.9942   16.3264 I   0  0  0  0  0  0  0  0  0  0  0  0
   -1.0790  -11.2140   17.8303 N   0  0  0  0  0  0  0  0  0  0  0  0
   -0.4147  -11.5652   19.2076 C   0  0  0  0  0  0  0  0  0  0  0  0
   10.1627   -5.3081   19.9515 C   0  0  0  0  0  0  0  0  0  0  0  0
   10.2812   -4.8642   18.6345 C   0  0  0  0  0  0  0  0  0  0  0  0
    0.9897  -11.2901   19.0548 N   0  0  0  0  0  0  0  0  0  0  0  0
    0.7864  -12.2102   21.1569 C   0  0  0  0  0  0  0  0  0  0  0  0
   13.4692   -5.4446   22.1880 C   0  0  0  0  0  0  0  0  0  0  0  0
    8.8318   -4.3918   15.7575 C   0  0  0  0  0  0  0  0  0  0  0  0
    7.0316   -9.0874   15.1150 O   0  0  0  0  0  0  0  0  0  0  0  0
   13.0162   -4.3053   24.4764 C   0  0  0  0  0  0  0  0  0  0  0  0
    2.6051   -9.9407   17.4459 C   0  0  0  0  0  0  0  0  0  0  0  0
    3.7932   -8.5744   16.0432 C   0  0  0  0  0  0  0  0  0  0  0  0
    9.2957   -5.6396   16.6087 C   0  0  0  0  0  0  0  0  0  0  0  0
   -0.2897  -12.7311   21.0519 C   0  0  0  0  0  0  0  0  0  0  0  0
   -0.9242  -12.4851   20.2624 C   0  0  0  0  0  0  0  0  0  0  0  0
    9.9832   -3.4275   16.6859 C   0  0  0  0  0  0  0  0  0  0  0  0
    1.7112  -11.8112   20.0081 F   0  0  0  0  0  0  0  0  0  0  0  0
   11.7213   -4.9561   20.3889 O   0  0  0  0  0  0  0  0  0  0  0  0
    9.0731   -6.0016   17.8000 He  0  0  0  0  0  0  0  0  0  0  0  0
    8.0449   -6.5430   15.6258 He  0  0  0  0  0  0  0  0  0  0  0  0
  1 21  3  0
  1 26  2  0
  2 12  4  0
  2 19  4  0
  2 20  1  0
  2 24  1  0
  2 25  1  0
  3 27  3  0
  3 29  4  0
  4  5  4  0
  4 18  4  0
  4 24  4  0
  4 25  4  0
  5  7  4  0
  6  9  4  0
  6 24  4  0
  7 10  1  0
  7 16  2  0
  7 18  2  0
  7 26  4  0
  7 29  1  0
  8  9  4  0
  8 21  4  0
  8 23  4  0
  8 32  1  0
  9 22  3  0
 10 14  4  0
 10 16  1  0
 10 23  2  0
 10 32  1  0
 11 18  4  0
 11 25  4  0
 11 26  4  0
 11 27  2  0
 11 29  3  0
 12 13  1  0
 12 15  4  0
 12 20  3  0
 12 24  4  0
 13 17  2  0
 13 18  4  0
 13 30  4  0
 14 31  3  0
 15 16  4  0
 15 22  3  0
 16 19  4  0
 16 20  1  0
 16 29  4  0
 17 18  1  0
 17 23  2  0
 17 28  2  0
 17 32  1  0
 18 24  3  0
 19 24  2  0
 19 31  4  0
 20 28  4  0
 22 27  4  0
 23 27  2  0
 24 31  2  0
 27 29  1  0
 28 29  4  0
 30 32  2  0
M  END
$$$$

 Created by Python create_sdf_string function

 34 38  0  0  0  0  0  0  0  0999 V2000
   13.7025   -5.0674   23.3783 C   0  0  0  0  0  0  0  0  0  0  0  0
    1.3797  -10.5384   17.8976 C   0  0  0  0  0  0  0  0  0  0  0  0
    8.8980   -7.1070   18.3030 F   0  0  0  0  0  0  0  0  0  0  0  0
    3.8386  -10.2657   17.9881 C   0  0  0  0  0  0  0  0  0  0  0  0
    4.9743   -9.6942   17.5653 N   0  0  0  0  0  0  0  0  0  0  0  0
   11.5890   -3.9717   23.8914 C   0  0  0  0  0  0  0  0  0  0  0  0
    5.0115   -8.8327   16.5066 C   0  0  0  0  0  0  0  0  0  0  0  0
   11.9892   -4.8422   21.7208 C   0  0  0  0  0  0  0  0  0  0  0  0
   11.1468   -4.2171   22.5943 C   0  0  0  0  0  0  0  0  0  0  0  0
    6.3136   -8.3021   15.9394 C   0  0  0  0  0  0  0  0  0  0  0  0
    2.6462   -9.0566   16.3827 N   0  0  0  0  0  0  0  0  0  0  0  0
    0.2421  -10.4362   17.1963 N   0  0  0  0  0  0  0  0  0  0  0  0
    9.2871   -5.8574   17.7807 C   0  0  0  0  0  0  0  0  0  0  0  0
    8.1008   -6.5403   15.7260 C   0  0  0  0  0  0  0  0  0  0  0  0
   10.4645   -3.7678   17.8761 C   0  0  0  0  0  0  0  0  0  0  0  0
    6.8337   -7.0549   16.2589 N   0  0  0  0  0  0  0  0  0  0  0  0
   -0.8201  -11.0774   17.8570 N   0  0  0  0  0  0  0  0  0  0  0  0
   -0.3486  -11.6162   19.0197 C   0  0  0  0  0  0  0  0  0  0  0  0
   10.3848   -5.2203   19.8982 C   0  0  0  0  0  0  0  0  0  0  0  0
   10.0908   -4.9547   18.4853 C   0  0  0  0  0  0  0  0  0  0  0  0
    1.0251  -11.2704   19.0729 N   0  0  0  0  0  0  0  0  0  0  0  0
    1.0914  -12.3814   21.2231 C   0  0  0  0  0  0  0  0  0  0  0  0
   13.2394   -5.2905   22.1025 C   0  0  0  0  0  0  0  0  0  0  0  0
    9.1797   -4.3592   15.9295 C   0  0  0  0  0  0  0  0  0  0  0  0
    6.8819   -9.0780   15.2782 O   0  0  0  0  0  0  0  0  0  0  0  0
   12.8617   -4.3835   24.2737 C   0  0  0  0  0  0  0  0  0  0  0  0
    2.6141   -9.9652   17.4279 C   0  0  0  0  0  0  0  0  0  0  0  0
    3.7797   -8.5514   15.9697 C   0  0  0  0  0  0  0  0  0  0  0  0
    8.8407   -5.5482   16.5111 C   0  0  0  0  0  0  0  0  0  0  0  0
   -0.2682  -12.6827   21.1629 C   0  0  0  0  0  0  0  0  0  0  0  0
   -1.0136  -12.3289   20.0492 C   0  0  0  0  0  0  0  0  0  0  0  0
   10.0324   -3.4690   16.5951 C   0  0  0  0  0  0  0  0  0  0  0  0
    1.6774  -11.6676   20.1951 C   0  0  0  0  0  0  0  0  0  0  0  0
   11.6366   -4.9592   20.3415 O   0  0  0  0  0  0  0  0  0  0  0  0
  1 23  4  0
  1 26  4  0
  2 12  4  0
  2 21  4  0
  2 27  1  0
  3 13  1  0
  4  5  4  0
  4 27  4  0
  5  7  4  0
  6  9  4  0
  6 26  4  0
  7 10  1  0
  7 28  4  0
  8  9  4  0
  8 23  4  0
  8 34  1  0
 10 16  1  0
 10 25  2  0
 11 27  4  0
 11 28  4  0
 12 17  4  0
 13 20  4  0
 13 29  4  0
 14 16  1  0
 14 29  1  0
 15 20  4  0
 15 32  4  0
 17 18  4  0
 18 21  4  0
 18 31  4  0
 19 20  1  0
 19 34  1  0
 21 33  4  0
 22 30  4  0
 22 33  4  0
 24 29  4  0
 24 32  4  0
 30 31  4  0
M  END
$$$$

 Created by Python create_sdf_string function

 34 54  0  0  0  0  0  0  0  0999 V2000
   13.4841   -5.2501   23.1846 C   0  0  0  0  0  0  0  0  0  0  0  0
    1.4411  -10.7329   17.7631 C   0  0  0  0  0  0  0  0  0  0  0  0
    9.3614   -7.1428   18.2612 F   0  0  0  0  0  0  0  0  0  0  0  0
    3.8394  -10.0101   17.9796 C   0  0  0  0  0  0  0  0  0  0  0  0
   11.7011   -3.7078   23.6356 C   0  0  0  0  0  0  0  0  0  0  0  0
    4.5399   -9.1504   16.4532 P   0  0  0  0  0  0  0  0  0  0  0  0
   11.9862   -4.5763   22.1135 C   0  0  0  0  0  0  0  0  0  0  0  0
   11.1182   -4.1158   22.7494 C   0  0  0  0  0  0  0  0  0  0  0  0
    6.2116   -8.4151   16.0328 O   0  0  0  0  0  0  0  0  0  0  0  0
    2.8112   -9.1852   16.4096 N   0  0  0  0  0  0  0  0  0  0  0  0
    0.3648  -10.4180   17.2011 N   0  0  0  0  0  0  0  0  0  0  0  0
    8.1799   -6.3747   15.8037 C   0  0  0  0  0  0  0  0  0  0  0  0
   10.3685   -3.8395   17.8088 C   0  0  0  0  0  0  0  0  0  0  0  0
   -0.8604  -11.1017   17.8824 P   0  0  0  0  0  0  0  0  0  0  0  0
   -0.3378  -11.9753   19.2843 C   0  0  0  0  0  0  0  0  0  0  0  0
   10.4174   -5.1250   19.8949 C   0  0  0  0  0  0  0  0  0  0  0  0
    9.8776   -5.0385   18.7601 S   0  0  0  0  0  0  0  0  0  0  0  0
    0.9765  -11.1351   19.3161 N   0  0  0  0  0  0  0  0  0  0  0  0
    1.0154  -12.3423   21.2297 C   0  0  0  0  0  0  0  0  0  0  0  0
   13.0444   -5.3409   22.2388 C   0  0  0  0  0  0  0  0  0  0  0  0
    9.0787   -4.4208   15.5880 C   0  0  0  0  0  0  0  0  0  0  0  0
    6.8568   -9.1451   15.5585 O   0  0  0  0  0  0  0  0  0  0  0  0
   12.7939   -4.1135   23.8554 C   0  0  0  0  0  0  0  0  0  0  0  0
    2.5212   -9.7604   17.3686 C   0  0  0  0  0  0  0  0  0  0  0  0
    3.7556   -8.3567   15.9638 C   0  0  0  0  0  0  0  0  0  0  0  0
    8.8379   -5.6046   16.1614 C   0  0  0  0  0  0  0  0  0  0  0  0
   -0.0017  -12.6763   21.4839 C   0  0  0  0  0  0  0  0  0  0  0  0
   -1.3570  -12.4102   19.9573 C   0  0  0  0  0  0  0  0  0  0  0  0
   10.0500   -3.4809   16.2660 C   0  0  0  0  0  0  0  0  0  0  0  0
    1.8708  -11.5769   20.0106 C   0  0  0  0  0  0  0  0  0  0  0  0
   11.7545   -4.9123   20.3689 O   0  0  0  0  0  0  0  0  0  0  0  0
    5.0080   -9.5234   17.5906 He  0  0  0  0  0  0  0  0  0  0  0  0
    9.3353   -6.1876   17.7829 He  0  0  0  0  0  0  0  0  0  0  0  0
    6.8694   -7.3414   16.2930 He  0  0  0  0  0  0  0  0  0  0  0  0
  1 20  4  0
  1 23  4  0
  1 31  1  0
  2 11  4  0
  2 18  3  0
  2 21  1  0
  2 24  1  0
  2 25  3  0
  3 20  4  0
  3 24  3  0
  3 27  2  0
  4  5  4  0
  4 10  2  0
  4 12  3  0
  4 24  4  0
  5  8  4  0
  5 23  4  0
  6  9  1  0
  6 13  1  0
  6 25  4  0
  7  8  4  0
  7 12  2  0
  7 20  4  0
  7 31  1  0
  8 19  2  0
  8 27  4  0
  9 11  2  0
  9 22  2  0
 10 22  2  0
 10 24  4  0
 10 25  3  0
 11 14  4  0
 12 26  1  0
 12 28  2  0
 13 17  4  0
 13 29  4  0
 15 18  4  0
 15 26  4  0
 15 28  4  0
 16 17  1  0
 16 22  3  0
 16 31  1  0
 17 28  1  0
 18 21  4  0
 18 30  4  0
 19 26  3  0
 19 27  4  0
 19 30  4  0
 20 24  3  0
 21 23  2  0
 21 26  4  0
 21 29  4  0
 24 26  2  0
 27 28  4  0
M  END
$$$$

 Created by Python create_sdf_string function

 34 38  0  0  0  0  0  0  0  0999 V2000
   13.5873   -5.0491   23.3064 C   0  0  0  0  0  0  0  0  0  0  0  0
    1.3700  -10.5509   17.9308 C   0  0  0  0  0  0  0  0  0  0  0  0
    9.2142   -7.2063   18.2981 F   0  0  0  0  0  0  0  0  0  0  0  0
    3.7988  -10.2050   18.0586 C   0  0  0  0  0  0  0  0  0  0  0  0
    4.9190   -9.6553   17.6403 C   0  0  0  0  0  0  0  0  0  0  0  0
   11.6565   -3.7017   23.7983 C   0  0  0  0  0  0  0  0  0  0  0  0
    4.9683   -8.8526   16.5474 C   0  0  0  0  0  0  0  0  0  0  0  0
   11.8858   -4.7352   21.6731 C   0  0  0  0  0  0  0  0  0  0  0  0
   11.1435   -3.9637   22.5270 C   0  0  0  0  0  0  0  0  0  0  0  0
    6.2806   -8.4475   16.0186 C   0  0  0  0  0  0  0  0  0  0  0  0
    2.6104   -9.0773   16.3663 N   0  0  0  0  0  0  0  0  0  0  0  0
    0.2443  -10.5018   17.1983 N   0  0  0  0  0  0  0  0  0  0  0  0
    9.3533   -5.9425   17.7350 C   0  0  0  0  0  0  0  0  0  0  0  0
    8.0170   -6.6228   15.7044 C   0  0  0  0  0  0  0  0  0  0  0  0
   10.4229   -3.7676   17.7876 C   0  0  0  0  0  0  0  0  0  0  0  0
    6.8748   -7.2085   16.3481 N   0  0  0  0  0  0  0  0  0  0  0  0
   -0.7774  -11.1670   17.8631 N   0  0  0  0  0  0  0  0  0  0  0  0
   -0.3197  -11.6516   19.0808 C   0  0  0  0  0  0  0  0  0  0  0  0
   10.2976   -5.0999   19.8743 C   0  0  0  0  0  0  0  0  0  0  0  0
   10.0629   -4.9667   18.4010 C   0  0  0  0  0  0  0  0  0  0  0  0
    1.0364  -11.2841   19.1189 N   0  0  0  0  0  0  0  0  0  0  0  0
    1.1631  -12.3047   21.2986 C   0  0  0  0  0  0  0  0  0  0  0  0
   13.0739   -5.3054   22.0504 C   0  0  0  0  0  0  0  0  0  0  0  0
    9.1776   -4.4608   15.8461 C   0  0  0  0  0  0  0  0  0  0  0  0
    6.8484   -9.2658   15.4337 O   0  0  0  0  0  0  0  0  0  0  0  0
   12.8567   -4.2366   24.1460 C   0  0  0  0  0  0  0  0  0  0  0  0
    2.5873   -9.9261   17.4480 C   0  0  0  0  0  0  0  0  0  0  0  0
    3.7769   -8.5667   15.9420 C   0  0  0  0  0  0  0  0  0  0  0  0
    8.8275   -5.6431   16.4569 C   0  0  0  0  0  0  0  0  0  0  0  0
   -0.1897  -12.6667   21.2438 C   0  0  0  0  0  0  0  0  0  0  0  0
   -0.9463  -12.3383   20.1460 C   0  0  0  0  0  0  0  0  0  0  0  0
   10.0027   -3.5364   16.4834 C   0  0  0  0  0  0  0  0  0  0  0  0
    1.7426  -11.6744   20.2472 C   0  0  0  0  0  0  0  0  0  0  0  0
   11.5528   -4.8411   20.3453 O   0  0  0  0  0  0  0  0  0  0  0  0
  1 23  4  0
  1 26  4  0
  2 12  4  0
  2 21  4  0
  2 27  1  0
  3 13  1  0
  4  5  4  0
  4 27  4  0
  5  7  4  0
  6  9  4  0
  6 26  4  0
  7 10  1  0
  7 28  4  0
  8  9  4  0
  8 23  4  0
  8 34  1  0
 10 16  1  0
 10 25  2  0
 11 27  4  0
 11 28  4  0
 12 17  4  0
 13 20  4  0
 13 29  4  0
 14 16  1  0
 14 29  1  0
 15 20  4  0
 15 32  4  0
 17 18  4  0
 18 21  4  0
 18 31  4  0
 19 20  1  0
 19 34  1  0
 21 33  4  0
 22 30  4  0
 22 33  4  0
 24 29  4  0
 24 32  4  0
 30 31  4  0
M  END
$$$$

 Created by Python create_sdf_string function

 34 54  0  0  0  0  0  0  0  0999 V2000
   13.6342   -5.0379   23.1934 C   0  0  0  0  0  0  0  0  0  0  0  0
    1.5722  -10.2357   17.6752 C   0  0  0  0  0  0  0  0  0  0  0  0
    9.1963   -7.2519   18.1955 F   0  0  0  0  0  0  0  0  0  0  0  0
    3.8802  -10.2064   17.8507 C   0  0  0  0  0  0  0  0  0  0  0  0
    5.0604   -9.6736   17.6412 C   0  0  0  0  0  0  0  0  0  0  0  0
   11.4989   -3.8065   23.7822 C   0  0  0  0  0  0  0  0  0  0  0  0
    4.8887   -8.8024   16.5851 C   0  0  0  0  0  0  0  0  0  0  0  0
   11.8302   -4.6293   21.3377 C   0  0  0  0  0  0  0  0  0  0  0  0
   11.3885   -3.9247   22.4922 C   0  0  0  0  0  0  0  0  0  0  0  0
    6.5410   -8.4364   16.2935 C   0  0  0  0  0  0  0  0  0  0  0  0
    0.4276  -10.6529   17.1917 N   0  0  0  0  0  0  0  0  0  0  0  0
    9.4410   -5.8823   17.7966 C   0  0  0  0  0  0  0  0  0  0  0  0
    8.2107   -6.6569   15.6760 C   0  0  0  0  0  0  0  0  0  0  0  0
   10.2258   -3.6309   18.0266 C   0  0  0  0  0  0  0  0  0  0  0  0
    6.7999   -6.9997   16.2410 N   0  0  0  0  0  0  0  0  0  0  0  0
   -0.7508  -11.2808   17.8230 N   0  0  0  0  0  0  0  0  0  0  0  0
   -0.2877  -11.6400   19.1837 C   0  0  0  0  0  0  0  0  0  0  0  0
   10.2122   -5.0985   19.8062 C   0  0  0  0  0  0  0  0  0  0  0  0
    9.8233   -4.7133   18.5755 C   0  0  0  0  0  0  0  0  0  0  0  0
    1.0009  -12.5555   21.3718 C   0  0  0  0  0  0  0  0  0  0  0  0
   12.9934   -5.4290   21.8481 C   0  0  0  0  0  0  0  0  0  0  0  0
    9.2554   -4.4434   15.7371 C   0  0  0  0  0  0  0  0  0  0  0  0
    6.5406   -9.0726   15.8526 O   0  0  0  0  0  0  0  0  0  0  0  0
   12.9178   -4.3496   24.1613 C   0  0  0  0  0  0  0  0  0  0  0  0
    2.6319   -9.6521   17.6999 C   0  0  0  0  0  0  0  0  0  0  0  0
    3.6532   -8.3326   15.9751 S   0  0  0  0  0  0  0  0  0  0  0  0
    9.0709   -5.4660   16.3388 C   0  0  0  0  0  0  0  0  0  0  0  0
   -0.4802  -12.6645   21.1468 C   0  0  0  0  0  0  0  0  0  0  0  0
   -1.1144  -12.4606   20.2499 F   0  0  0  0  0  0  0  0  0  0  0  0
   10.1111   -3.5485   16.5711 C   0  0  0  0  0  0  0  0  0  0  0  0
    1.8376  -11.6544   20.4349 C   0  0  0  0  0  0  0  0  0  0  0  0
   11.4583   -4.8701   20.3773 O   0  0  0  0  0  0  0  0  0  0  0  0
    2.4482   -9.2071   16.5707 He  0  0  0  0  0  0  0  0  0  0  0  0
    1.0371  -11.4438   19.1405 He  0  0  0  0  0  0  0  0  0  0  0  0
  1 21  4  0
  1 24  4  0
  2  3  1  0
  2 11  4  0
  2 25  2  0
  3  7  4  0
  3 12  1  0
  3 15  3  0
  3 28  1  0
  4  5  4  0
  4  6  3  0
  4 19  4  0
  5  7  4  0
  5 11  3  0
  5 12  1  0
  5 22  3  0
  6  9  4  0
  6 24  2  0
  6 31  2  0
  7 10  1  0
  7 26  4  0
  8  9  4  0
  8 21  4  0
  8 32  3  0
  9 12  2  0
 10 15  1  0
 10 23  2  0
 11 16  4  0
 11 18  2  0
 12 19  4  0
 12 20  2  0
 12 27  4  0
 13 14  1  0
 13 15  1  0
 13 21  1  0
 13 27  1  0
 14 19  4  0
 14 30  4  0
 15 20  4  0
 16 17  4  0
 17 27  4  0
 17 29  4  0
 18 19  1  0
 18 32  1  0
 19 23  3  0
 20 28  4  0
 20 31  4  0
 22 26  3  0
 22 27  4  0
 22 29  3  0
 22 30  4  0
 24 26  3  0
 28 29  4  0
 29 30  1  0
M  END
$$$$

 Created by Python create_sdf_string function

 34 38  0  0  0  0  0  0  0  0999 V2000
   13.6074   -5.1120   23.1882 C   0  0  0  0  0  0  0  0  0  0  0  0
    1.4297  -10.5749   17.9710 C   0  0  0  0  0  0  0  0  0  0  0  0
    9.1648   -7.1611   18.2551 F   0  0  0  0  0  0  0  0  0  0  0  0
    3.8156  -10.2618   18.1195 C   0  0  0  0  0  0  0  0  0  0  0  0
    4.9449   -9.7148   17.6714 C   0  0  0  0  0  0  0  0  0  0  0  0
   11.6877   -3.7716   23.7742 C   0  0  0  0  0  0  0  0  0  0  0  0
    4.9824   -8.8204   16.6648 C   0  0  0  0  0  0  0  0  0  0  0  0
   11.8846   -4.6873   21.5826 C   0  0  0  0  0  0  0  0  0  0  0  0
   11.1621   -3.9541   22.4998 C   0  0  0  0  0  0  0  0  0  0  0  0
    6.3108   -8.3539   16.1431 C   0  0  0  0  0  0  0  0  0  0  0  0
    2.5949   -8.9824   16.5323 C   0  0  0  0  0  0  0  0  0  0  0  0
    0.3162  -10.5735   17.2249 N   0  0  0  0  0  0  0  0  0  0  0  0
    9.3385   -5.8579   17.7471 C   0  0  0  0  0  0  0  0  0  0  0  0
    8.1478   -6.6188   15.7055 C   0  0  0  0  0  0  0  0  0  0  0  0
   10.3146   -3.6630   17.8725 C   0  0  0  0  0  0  0  0  0  0  0  0
    6.8945   -7.0824   16.2814 N   0  0  0  0  0  0  0  0  0  0  0  0
   -0.6982  -11.2775   17.8593 N   0  0  0  0  0  0  0  0  0  0  0  0
   -0.2970  -11.6852   19.0760 C   0  0  0  0  0  0  0  0  0  0  0  0
   10.1738   -5.0072   19.8843 C   0  0  0  0  0  0  0  0  0  0  0  0
    9.9726   -4.8577   18.4747 C   0  0  0  0  0  0  0  0  0  0  0  0
    1.0572  -11.2951   19.1917 C   0  0  0  0  0  0  0  0  0  0  0  0
    1.0469  -12.4004   21.3601 C   0  0  0  0  0  0  0  0  0  0  0  0
   13.1141   -5.2359   21.9024 C   0  0  0  0  0  0  0  0  0  0  0  0
    9.3058   -4.4529   15.8481 C   0  0  0  0  0  0  0  0  0  0  0  0
    6.8994   -9.1884   15.6704 O   0  0  0  0  0  0  0  0  0  0  0  0
   12.8786   -4.3743   24.1016 C   0  0  0  0  0  0  0  0  0  0  0  0
    2.6200   -9.9480   17.5218 C   0  0  0  0  0  0  0  0  0  0  0  0
    3.7786   -8.4072   16.1130 C   0  0  0  0  0  0  0  0  0  0  0  0
    8.9216   -5.6230   16.4695 C   0  0  0  0  0  0  0  0  0  0  0  0
   -0.3184  -12.7205   21.2247 C   0  0  0  0  0  0  0  0  0  0  0  0
   -1.0074  -12.3694   20.0910 C   0  0  0  0  0  0  0  0  0  0  0  0
    9.9980   -3.4579   16.5323 C   0  0  0  0  0  0  0  0  0  0  0  0
    1.7141  -11.7112   20.3632 C   0  0  0  0  0  0  0  0  0  0  0  0
   11.4804   -4.8216   20.2862 O   0  0  0  0  0  0  0  0  0  0  0  0
  1 23  4  0
  1 26  4  0
  2 12  4  0
  2 21  4  0
  2 27  1  0
  3 13  1  0
  4  5  4  0
  4 27  4  0
  5  7  4  0
  6  9  4  0
  6 26  4  0
  7 10  1  0
  7 28  4  0
  8  9  4  0
  8 23  4  0
  8 34  1  0
 10 16  1  0
 10 25  2  0
 11 27  4  0
 11 28  4  0
 12 17  4  0
 13 20  4  0
 13 29  4  0
 14 16  1  0
 14 29  1  0
 15 20  4  0
 15 32  4  0
 17 18  4  0
 18 21  4  0
 18 31  4  0
 19 20  1  0
 19 34  1  0
 21 33  4  0
 22 30  4  0
 22 33  4  0
 24 29  4  0
 24 32  4  0
 30 31  4  0
M  END
$$$$

 Created by Python create_sdf_string function

 34 59  0  0  0  0  0  0  0  0999 V2000
   13.6524   -5.0533   23.1981 C   0  0  0  0  0  0  0  0  0  0  0  0
    1.4036  -10.8107   18.1797 C   0  0  0  0  0  0  0  0  0  0  0  0
    9.1561   -7.0981   18.5013 F   0  0  0  0  0  0  0  0  0  0  0  0
    3.6065  -10.2344   18.3700 C   0  0  0  0  0  0  0  0  0  0  0  0
    4.7408   -9.7424   17.3723 C   0  0  0  0  0  0  0  0  0  0  0  0
   11.4877   -3.6457   23.6131 C   0  0  0  0  0  0  0  0  0  0  0  0
    4.7245   -8.9535   16.8286 Br  0  0  0  0  0  0  0  0  0  0  0  0
   11.7844   -4.7513   21.5860 C   0  0  0  0  0  0  0  0  0  0  0  0
   11.0334   -4.1027   22.6125 C   0  0  0  0  0  0  0  0  0  0  0  0
    6.1144   -8.5190   16.1856 C   0  0  0  0  0  0  0  0  0  0  0  0
    2.8177   -9.0463   16.4666 C   0  0  0  0  0  0  0  0  0  0  0  0
    9.2473   -5.8902   17.7723 C   0  0  0  0  0  0  0  0  0  0  0  0
    7.9424   -6.7824   15.5452 C   0  0  0  0  0  0  0  0  0  0  0  0
   10.1070   -3.8228   17.6778 C   0  0  0  0  0  0  0  0  0  0  0  0
    6.7864   -7.0979   16.3709 N   0  0  0  0  0  0  0  0  0  0  0  0
   -0.6174  -11.3722   17.8206 N   0  0  0  0  0  0  0  0  0  0  0  0
   -0.1836  -11.6480   18.9490 C   0  0  0  0  0  0  0  0  0  0  0  0
   10.0061   -5.0440   19.8124 C   0  0  0  0  0  0  0  0  0  0  0  0
   10.0648   -4.7699   18.4467 C   0  0  0  0  0  0  0  0  0  0  0  0
    0.8585  -11.2346   19.4265 C   0  0  0  0  0  0  0  0  0  0  0  0
    1.0231  -12.1940   21.3442 C   0  0  0  0  0  0  0  0  0  0  0  0
    9.3340   -4.4313   15.7493 C   0  0  0  0  0  0  0  0  0  0  0  0
    7.0632   -9.3458   15.9340 O   0  0  0  0  0  0  0  0  0  0  0  0
    2.7153   -9.7426   17.3979 C   0  0  0  0  0  0  0  0  0  0  0  0
    3.7576   -8.2572   16.1525 C   0  0  0  0  0  0  0  0  0  0  0  0
    9.1086   -5.5582   16.4603 C   0  0  0  0  0  0  0  0  0  0  0  0
   -0.2236  -12.8103   21.2513 C   0  0  0  0  0  0  0  0  0  0  0  0
   -1.0516  -12.1699   19.8770 C   0  0  0  0  0  0  0  0  0  0  0  0
   10.0111   -3.2968   16.4919 C   0  0  0  0  0  0  0  0  0  0  0  0
    1.5806  -11.5941   20.4736 C   0  0  0  0  0  0  0  0  0  0  0  0
   11.4633   -4.8476   20.1058 O   0  0  0  0  0  0  0  0  0  0  0  0
    0.1816  -10.5762   17.3220 He  0  0  0  0  0  0  0  0  0  0  0  0
   13.1600   -5.1647   21.9778 He  0  0  0  0  0  0  0  0  0  0  0  0
   13.0141   -4.5712   23.9396 He  0  0  0  0  0  0  0  0  0  0  0  0
  1 23  3  0
  2  5  1  0
  2 24  1  0
  3 12  1  0
  4  5  4  0
  4 17  4  0
  4 24  3  0
  5  7  4  0
  5 13  2  0
  5 15  4  0
  5 26  3  0
  6  9  4  0
  6 13  1  0
  6 16  4  0
  6 28  1  0
  7  8  3  0
  7 10  1  0
  7 15  4  0
  7 16  2  0
  7 17  2  0
  7 21  4  0
  7 24  1  0
  7 25  4  0
  8  9  4  0
  8 14  3  0
  8 31  1  0
  9 15  3  0
 10 15  1  0
 10 20  4  0
 10 23  2  0
 11 13  4  0
 11 24  4  0
 12 15  3  0
 12 19  4  0
 12 26  4  0
 13 15  1  0
 13 26  1  0
 13 28  4  0
 14 19  4  0
 14 25  2  0
 14 29  4  0
 15 25  2  0
 15 28  2  0
 16 17  4  0
 17 20  4  0
 17 21  4  0
 17 28  4  0
 18 19  1  0
 18 23  1  0
 18 30  1  0
 18 31  1  0
 20 30  4  0
 21 27  4  0
 21 30  4  0
 22 28  2  0
 22 29  4  0
 27 28  4  0
 27 31  4  0
 28 29  3  0
M  END
$$$$

 Created by Python create_sdf_string function

 34 38  0  0  0  0  0  0  0  0999 V2000
   13.6231   -5.0388   23.1094 C   0  0  0  0  0  0  0  0  0  0  0  0
    1.3777  -10.5438   17.9931 C   0  0  0  0  0  0  0  0  0  0  0  0
    9.0701   -7.0792   18.3738 F   0  0  0  0  0  0  0  0  0  0  0  0
    3.7708  -10.3449   18.1024 C   0  0  0  0  0  0  0  0  0  0  0  0
    4.8889   -9.7887   17.6934 C   0  0  0  0  0  0  0  0  0  0  0  0
   11.6194   -3.8789   23.7675 C   0  0  0  0  0  0  0  0  0  0  0  0
    4.9719   -8.8726   16.7027 C   0  0  0  0  0  0  0  0  0  0  0  0
   11.8629   -4.7206   21.5651 C   0  0  0  0  0  0  0  0  0  0  0  0
   11.0709   -4.0528   22.5088 C   0  0  0  0  0  0  0  0  0  0  0  0
    6.3146   -8.4681   16.2351 C   0  0  0  0  0  0  0  0  0  0  0  0
    2.6070   -8.9437   16.5589 C   0  0  0  0  0  0  0  0  0  0  0  0
    0.2646  -10.6300   17.2215 N   0  0  0  0  0  0  0  0  0  0  0  0
    9.2823   -5.8450   17.7426 C   0  0  0  0  0  0  0  0  0  0  0  0
    8.0523   -6.6800   15.6967 C   0  0  0  0  0  0  0  0  0  0  0  0
   10.3051   -3.6742   17.7598 C   0  0  0  0  0  0  0  0  0  0  0  0
    6.8100   -7.1423   16.2911 N   0  0  0  0  0  0  0  0  0  0  0  0
   -0.7396  -11.3029   17.8570 N   0  0  0  0  0  0  0  0  0  0  0  0
   -0.2931  -11.6907   19.0716 C   0  0  0  0  0  0  0  0  0  0  0  0
   10.1543   -4.9562   19.8307 C   0  0  0  0  0  0  0  0  0  0  0  0
    9.9434   -4.8399   18.4065 C   0  0  0  0  0  0  0  0  0  0  0  0
    1.0150  -11.2337   19.2104 C   0  0  0  0  0  0  0  0  0  0  0  0
    0.9932  -12.2544   21.4409 C   0  0  0  0  0  0  0  0  0  0  0  0
   13.1144   -5.2220   21.8630 C   0  0  0  0  0  0  0  0  0  0  0  0
    9.2202   -4.4898   15.7867 C   0  0  0  0  0  0  0  0  0  0  0  0
    6.9968   -9.3311   15.8702 O   0  0  0  0  0  0  0  0  0  0  0  0
   12.8741   -4.3527   24.0156 C   0  0  0  0  0  0  0  0  0  0  0  0
    2.5765   -9.9291   17.5472 C   0  0  0  0  0  0  0  0  0  0  0  0
    3.8022   -8.4312   16.1651 C   0  0  0  0  0  0  0  0  0  0  0  0
    8.8512   -5.6467   16.4432 C   0  0  0  0  0  0  0  0  0  0  0  0
   -0.3184  -12.6721   21.2459 C   0  0  0  0  0  0  0  0  0  0  0  0
   -0.9828  -12.4123   20.0719 C   0  0  0  0  0  0  0  0  0  0  0  0
    9.9676   -3.5026   16.4097 C   0  0  0  0  0  0  0  0  0  0  0  0
    1.6263  -11.5615   20.4415 C   0  0  0  0  0  0  0  0  0  0  0  0
   11.4606   -4.8544   20.2440 O   0  0  0  0  0  0  0  0  0  0  0  0
  1 23  4  0
  1 26  4  0
  2 12  4  0
  2 21  4  0
  2 27  1  0
  3 13  1  0
  4  5  4  0
  4 27  4  0
  5  7  4  0
  6  9  4  0
  6 26  4  0
  7 10  1  0
  7 28  4  0
  8  9  4  0
  8 23  4  0
  8 34  1  0
 10 16  1  0
 10 25  2  0
 11 27  4  0
 11 28  4  0
 12 17  4  0
 13 20  4  0
 13 29  4  0
 14 16  1  0
 14 29  1  0
 15 20  4  0
 15 32  4  0
 17 18  4  0
 18 21  4  0
 18 31  4  0
 19 20  1  0
 19 34  1  0
 21 33  4  0
 22 30  4  0
 22 33  4  0
 24 29  4  0
 24 32  4  0
 30 31  4  0
M  END
$$$$

 Created by Python create_sdf_string function

 34 51  0  0  0  0  0  0  0  0999 V2000
   13.4808   -4.9359   23.1339 C   0  0  0  0  0  0  0  0  0  0  0  0
    1.3433  -10.6258   17.7659 C   0  0  0  0  0  0  0  0  0  0  0  0
    9.0015   -7.0723   18.2723 F   0  0  0  0  0  0  0  0  0  0  0  0
    3.8527  -10.3373   18.0356 C   0  0  0  0  0  0  0  0  0  0  0  0
    4.8594   -9.6874   17.7409 C   0  0  0  0  0  0  0  0  0  0  0  0
   11.6986   -4.0274   23.8831 C   0  0  0  0  0  0  0  0  0  0  0  0
    4.9202   -9.0498   16.7500 C   0  0  0  0  0  0  0  0  0  0  0  0
   11.7544   -4.8130   21.6524 S   0  0  0  0  0  0  0  0  0  0  0  0
   11.0413   -3.9806   22.3561 C   0  0  0  0  0  0  0  0  0  0  0  0
    6.3384   -8.4948   16.2534 C   0  0  0  0  0  0  0  0  0  0  0  0
    2.6236   -8.9367   16.7108 C   0  0  0  0  0  0  0  0  0  0  0  0
    0.3360  -10.5827   17.3129 N   0  0  0  0  0  0  0  0  0  0  0  0
    9.2600   -5.7527   17.7117 C   0  0  0  0  0  0  0  0  0  0  0  0
   10.2923   -3.7029   17.6299 C   0  0  0  0  0  0  0  0  0  0  0  0
    6.6790   -7.3748   16.2449 N   0  0  0  0  0  0  0  0  0  0  0  0
   -0.6583  -11.1462   17.7008 N   0  0  0  0  0  0  0  0  0  0  0  0
   -0.1601  -11.6090   19.1972 C   0  0  0  0  0  0  0  0  0  0  0  0
   10.5139   -5.0684   19.7272 C   0  0  0  0  0  0  0  0  0  0  0  0
   10.1312   -4.7558   18.6265 C   0  0  0  0  0  0  0  0  0  0  0  0
    0.9521  -10.9867   18.9150 C   0  0  0  0  0  0  0  0  0  0  0  0
    0.9338  -12.0868   21.5118 C   0  0  0  0  0  0  0  0  0  0  0  0
   13.0215   -5.0822   22.1604 C   0  0  0  0  0  0  0  0  0  0  0  0
    9.3952   -4.4534   15.6506 C   0  0  0  0  0  0  0  0  0  0  0  0
    7.0629   -9.0503   15.9746 O   0  0  0  0  0  0  0  0  0  0  0  0
   12.7795   -4.4055   23.7728 C   0  0  0  0  0  0  0  0  0  0  0  0
    2.4357   -9.8429   17.4616 C   0  0  0  0  0  0  0  0  0  0  0  0
    8.9833   -5.7870   16.5016 C   0  0  0  0  0  0  0  0  0  0  0  0
   -0.4720  -12.6198   21.1474 C   0  0  0  0  0  0  0  0  0  0  0  0
   -1.0958  -12.4565   20.0022 C   0  0  0  0  0  0  0  0  0  0  0  0
    9.8649   -3.7047   16.3905 C   0  0  0  0  0  0  0  0  0  0  0  0
    1.4711  -11.3975   20.5637 C   0  0  0  0  0  0  0  0  0  0  0  0
   11.2054   -4.5275   20.3395 O   0  0  0  0  0  0  0  0  0  0  0  0
    8.1210   -6.6662   15.8636 He  0  0  0  0  0  0  0  0  0  0  0  0
    3.6973   -8.4012   16.1762 He  0  0  0  0  0  0  0  0  0  0  0  0
  1 22  4  0
  1 25  4  0
  2 18  4  0
  2 20  4  0
  2 26  1  0
  3 12  2  0
  3 13  3  0
  4  5  4  0
  4 26  4  0
  4 32  1  0
  5  7  4  0
  5 30  1  0
  6  9  4  0
  6 25  4  0
  7 10  1  0
  8  9  4  0
  8 10  2  0
  8 22  4  0
  8 24  2  0
  8 29  2  0
  8 32  1  0
  9 18  3  0
  9 24  2  0
  9 28  4  0
 10 15  1  0
 10 24  2  0
 10 29  2  0
 11 21  1  0
 11 26  4  0
 12 16  4  0
 13 19  4  0
 13 27  4  0
 14 19  4  0
 14 27  4  0
 14 30  4  0
 16 17  4  0
 17 20  4  0
 17 29  4  0
 18 19  1  0
 18 32  1  0
 19 22  1  0
 19 25  4  0
 20 31  4  0
 21 28  4  0
 21 30  3  0
 21 31  4  0
 23 27  4  0
 23 30  4  0
 25 31  4  0
 28 29  4  0
 29 31  1  0
M  END
$$$$

 Created by Python create_sdf_string function

 34 38  0  0  0  0  0  0  0  0999 V2000
   13.5767   -5.0098   23.1107 C   0  0  0  0  0  0  0  0  0  0  0  0
    1.3622  -10.4989   17.9474 C   0  0  0  0  0  0  0  0  0  0  0  0
    8.9986   -7.0492   18.3615 F   0  0  0  0  0  0  0  0  0  0  0  0
    3.7713  -10.3646   18.1032 C   0  0  0  0  0  0  0  0  0  0  0  0
    4.9237   -9.8533   17.7058 C   0  0  0  0  0  0  0  0  0  0  0  0
   11.5652   -3.8879   23.8588 C   0  0  0  0  0  0  0  0  0  0  0  0
    5.0041   -8.8892   16.7487 C   0  0  0  0  0  0  0  0  0  0  0  0
   11.8019   -4.5986   21.6072 C   0  0  0  0  0  0  0  0  0  0  0  0
   11.0246   -4.0259   22.5736 C   0  0  0  0  0  0  0  0  0  0  0  0
    6.3363   -8.4930   16.2661 C   0  0  0  0  0  0  0  0  0  0  0  0
    2.6638   -8.9456   16.5619 C   0  0  0  0  0  0  0  0  0  0  0  0
    0.2919  -10.5668   17.1503 N   0  0  0  0  0  0  0  0  0  0  0  0
    9.2958   -5.8608   17.7389 C   0  0  0  0  0  0  0  0  0  0  0  0
    8.0254   -6.6767   15.7872 C   0  0  0  0  0  0  0  0  0  0  0  0
   10.3681   -3.7107   17.6578 C   0  0  0  0  0  0  0  0  0  0  0  0
    6.7834   -7.1694   16.2931 N   0  0  0  0  0  0  0  0  0  0  0  0
   -0.7259  -11.2567   17.7824 N   0  0  0  0  0  0  0  0  0  0  0  0
   -0.3261  -11.6338   19.0173 C   0  0  0  0  0  0  0  0  0  0  0  0
   10.3627   -5.0768   19.7772 C   0  0  0  0  0  0  0  0  0  0  0  0
   10.0434   -4.8772   18.3627 C   0  0  0  0  0  0  0  0  0  0  0  0
    0.9753  -11.1554   19.1767 C   0  0  0  0  0  0  0  0  0  0  0  0
    0.8630  -12.0830   21.4625 C   0  0  0  0  0  0  0  0  0  0  0  0
   13.0201   -5.1114   21.8555 C   0  0  0  0  0  0  0  0  0  0  0  0
    9.2148   -4.5613   15.7728 C   0  0  0  0  0  0  0  0  0  0  0  0
    7.0113   -9.3532   15.9133 O   0  0  0  0  0  0  0  0  0  0  0  0
   12.8267   -4.3818   24.0804 C   0  0  0  0  0  0  0  0  0  0  0  0
    2.5837   -9.9246   17.5348 C   0  0  0  0  0  0  0  0  0  0  0  0
    3.8520   -8.4131   16.2274 C   0  0  0  0  0  0  0  0  0  0  0  0
    8.8343   -5.6824   16.4640 C   0  0  0  0  0  0  0  0  0  0  0  0
   -0.4215  -12.5836   21.2158 C   0  0  0  0  0  0  0  0  0  0  0  0
   -1.0500  -12.3631   20.0189 C   0  0  0  0  0  0  0  0  0  0  0  0
    9.9969   -3.5851   16.3418 C   0  0  0  0  0  0  0  0  0  0  0  0
    1.5215  -11.4233   20.4421 C   0  0  0  0  0  0  0  0  0  0  0  0
   11.4101   -4.5602   20.2864 O   0  0  0  0  0  0  0  0  0  0  0  0
  1 23  4  0
  1 26  4  0
  2 12  4  0
  2 21  4  0
  2 27  1  0
  3 13  1  0
  4  5  4  0
  4 27  4  0
  5  7  4  0
  6  9  4  0
  6 26  4  0
  7 10  1  0
  7 28  4  0
  8  9  4  0
  8 23  4  0
  8 34  1  0
 10 16  1  0
 10 25  2  0
 11 27  4  0
 11 28  4  0
 12 17  4  0
 13 20  4  0
 13 29  4  0
 14 16  1  0
 14 29  1  0
 15 20  4  0
 15 32  4  0
 17 18  4  0
 18 21  4  0
 18 31  4  0
 19 20  1  0
 19 34  1  0
 21 33  4  0
 22 30  4  0
 22 33  4  0
 24 29  4  0
 24 32  4  0
 30 31  4  0
M  END
$$$$

 Created by Python create_sdf_string function

 34 47  0  0  0  0  0  0  0  0999 V2000
   13.5760   -5.0175   23.1391 C   0  0  0  0  0  0  0  0  0  0  0  0
    1.1456  -10.4447   17.8925 C   0  0  0  0  0  0  0  0  0  0  0  0
    9.0812   -6.9111   18.5775 F   0  0  0  0  0  0  0  0  0  0  0  0
    3.7190  -10.3314   17.8958 C   0  0  0  0  0  0  0  0  0  0  0  0
    4.8862   -9.8743   17.5597 C   0  0  0  0  0  0  0  0  0  0  0  0
   11.6445   -3.9655   24.2225 C   0  0  0  0  0  0  0  0  0  0  0  0
    5.0497   -8.6923   16.9124 C   0  0  0  0  0  0  0  0  0  0  0  0
   11.6804   -4.4786   21.3087 C   0  0  0  0  0  0  0  0  0  0  0  0
   10.9580   -4.0807   22.5501 C   0  0  0  0  0  0  0  0  0  0  0  0
    6.3607   -8.4800   16.2426 C   0  0  0  0  0  0  0  0  0  0  0  0
    2.8168   -9.0650   16.5653 C   0  0  0  0  0  0  0  0  0  0  0  0
    9.3398   -5.8222   17.6880 F   0  0  0  0  0  0  0  0  0  0  0  0
    8.0139   -6.7206   15.8549 C   0  0  0  0  0  0  0  0  0  0  0  0
   10.3854   -3.7477   17.4801 C   0  0  0  0  0  0  0  0  0  0  0  0
    6.7552   -7.1561   16.3484 N   0  0  0  0  0  0  0  0  0  0  0  0
   -0.9569  -11.2254   17.8990 N   0  0  0  0  0  0  0  0  0  0  0  0
   -0.3109  -11.6765   18.9023 C   0  0  0  0  0  0  0  0  0  0  0  0
   10.5065   -4.8930   19.4962 C   0  0  0  0  0  0  0  0  0  0  0  0
   10.0613   -5.0772   18.3327 C   0  0  0  0  0  0  0  0  0  0  0  0
    0.9185  -11.1783   19.2258 C   0  0  0  0  0  0  0  0  0  0  0  0
    0.8911  -12.0340   21.4442 C   0  0  0  0  0  0  0  0  0  0  0  0
   13.1047   -5.1323   21.8433 C   0  0  0  0  0  0  0  0  0  0  0  0
    9.3094   -4.7543   15.5866 C   0  0  0  0  0  0  0  0  0  0  0  0
    7.1357   -9.0600   15.9635 O   0  0  0  0  0  0  0  0  0  0  0  0
   12.7657   -4.2942   24.1873 C   0  0  0  0  0  0  0  0  0  0  0  0
    2.6148   -9.9269   17.6065 F   0  0  0  0  0  0  0  0  0  0  0  0
    3.7489   -8.4822   16.0597 C   0  0  0  0  0  0  0  0  0  0  0  0
    9.0584   -5.8566   16.5130 C   0  0  0  0  0  0  0  0  0  0  0  0
   -0.8577  -12.1541   20.1033 C   0  0  0  0  0  0  0  0  0  0  0  0
    9.9992   -3.6725   16.4498 C   0  0  0  0  0  0  0  0  0  0  0  0
    1.4534  -11.4584   20.4913 C   0  0  0  0  0  0  0  0  0  0  0  0
   11.4532   -4.7279   20.3209 O   0  0  0  0  0  0  0  0  0  0  0  0
    0.1694  -10.8362   17.2731 He  0  0  0  0  0  0  0  0  0  0  0  0
   -0.3423  -12.7164   21.2746 He  0  0  0  0  0  0  0  0  0  0  0  0
  1  8  1  0
  1 12  2  0
  1 22  4  0
  1 23  3  0
  1 25  4  0
  2 20  4  0
  2 26  1  0
  3 12  1  0
  3 21  1  0
  4  5  4  0
  4  9  1  0
  4 13  1  0
  4 15  3  0
  4 26  4  0
  6  7  2  0
  6  9  4  0
  6 25  4  0
  7 10  1  0
  7 27  4  0
  8  9  4  0
  8 22  4  0
  8 32  1  0
 10 15  1  0
 10 24  2  0
 10 27  3  0
 11 26  4  0
 11 27  4  0
 12 19  4  0
 12 28  4  0
 13 14  3  0
 13 15  1  0
 13 28  1  0
 14 19  1  0
 14 30  4  0
 15 22  2  0
 16 17  4  0
 16 27  2  0
 17 29  4  0
 18 19  1  0
 18 24  1  0
 18 32  1  0
 19 30  1  0
 20 31  4  0
 21 25  1  0
 21 31  4  0
 23 28  4  0
 23 30  4  0
M  END
$$$$

 Created by Python create_sdf_string function

 34 38  0  0  0  0  0  0  0  0999 V2000
   13.6200   -4.9637   23.1503 C   0  0  0  0  0  0  0  0  0  0  0  0
    1.3407  -10.5663   17.9690 C   0  0  0  0  0  0  0  0  0  0  0  0
    9.0490   -6.9613   18.4844 F   0  0  0  0  0  0  0  0  0  0  0  0
    3.7629  -10.3986   18.0609 C   0  0  0  0  0  0  0  0  0  0  0  0
    4.8981   -9.8872   17.6747 C   0  0  0  0  0  0  0  0  0  0  0  0
   11.5335   -3.9505   23.9177 C   0  0  0  0  0  0  0  0  0  0  0  0
    4.9985   -8.9106   16.7247 C   0  0  0  0  0  0  0  0  0  0  0  0
   11.8422   -4.6019   21.6245 C   0  0  0  0  0  0  0  0  0  0  0  0
   11.0411   -4.0547   22.6066 C   0  0  0  0  0  0  0  0  0  0  0  0
    6.3405   -8.4590   16.3034 C   0  0  0  0  0  0  0  0  0  0  0  0
    2.6527   -8.9961   16.5464 C   0  0  0  0  0  0  0  0  0  0  0  0
    0.1684  -10.6566   17.2288 C   0  0  0  0  0  0  0  0  0  0  0  0
    9.3525   -5.8584   17.7382 C   0  0  0  0  0  0  0  0  0  0  0  0
    8.0619   -6.7625   15.7588 C   0  0  0  0  0  0  0  0  0  0  0  0
   10.4450   -3.7690   17.5578 C   0  0  0  0  0  0  0  0  0  0  0  0
    6.8141   -7.1504   16.3429 N   0  0  0  0  0  0  0  0  0  0  0  0
   -0.8385  -11.3216   17.8568 N   0  0  0  0  0  0  0  0  0  0  0  0
   -0.3835  -11.6460   19.0949 C   0  0  0  0  0  0  0  0  0  0  0  0
   10.3557   -4.9338   19.7236 C   0  0  0  0  0  0  0  0  0  0  0  0
   10.0915   -4.8688   18.3147 C   0  0  0  0  0  0  0  0  0  0  0  0
    0.9684  -11.1660   19.2153 C   0  0  0  0  0  0  0  0  0  0  0  0
    0.9509  -12.0752   21.4579 C   0  0  0  0  0  0  0  0  0  0  0  0
   13.0989   -5.0675   21.8558 C   0  0  0  0  0  0  0  0  0  0  0  0
    9.2764   -4.6588   15.7055 C   0  0  0  0  0  0  0  0  0  0  0  0
    7.0298   -9.2839   15.9469 O   0  0  0  0  0  0  0  0  0  0  0  0
   12.8252   -4.4140   24.1535 C   0  0  0  0  0  0  0  0  0  0  0  0
    2.5618   -9.9929   17.5043 C   0  0  0  0  0  0  0  0  0  0  0  0
    3.8033   -8.4561   16.2074 C   0  0  0  0  0  0  0  0  0  0  0  0
    8.8994   -5.7421   16.4343 C   0  0  0  0  0  0  0  0  0  0  0  0
   -0.3395  -12.5552   21.2787 C   0  0  0  0  0  0  0  0  0  0  0  0
   -1.0305  -12.3599   20.1148 C   0  0  0  0  0  0  0  0  0  0  0  0
   10.0608   -3.6656   16.2511 C   0  0  0  0  0  0  0  0  0  0  0  0
    1.5817  -11.3969   20.4407 C   0  0  0  0  0  0  0  0  0  0  0  0
   11.4422   -4.6052   20.2798 O   0  0  0  0  0  0  0  0  0  0  0  0
  1 23  4  0
  1 26  4  0
  2 12  4  0
  2 21  4  0
  2 27  1  0
  3 13  1  0
  4  5  4  0
  4 27  4  0
  5  7  4  0
  6  9  4  0
  6 26  4  0
  7 10  1  0
  7 28  4  0
  8  9  4  0
  8 23  4  0
  8 34  1  0
 10 16  1  0
 10 25  2  0
 11 27  4  0
 11 28  4  0
 12 17  4  0
 13 20  4  0
 13 29  4  0
 14 16  1  0
 14 29  1  0
 15 20  4  0
 15 32  4  0
 17 18  4  0
 18 21  4  0
 18 31  4  0
 19 20  1  0
 19 34  1  0
 21 33  4  0
 22 30  4  0
 22 33  4  0
 24 29  4  0
 24 32  4  0
 30 31  4  0
M  END
$$$$

 Created by Python create_sdf_string function

 34 51  0  0  0  0  0  0  0  0999 V2000
   13.5466   -4.9743   23.1509 C   0  0  0  0  0  0  0  0  0  0  0  0
    1.1519  -10.4507   17.9768 C   0  0  0  0  0  0  0  0  0  0  0  0
    9.1535   -6.8457   18.4433 F   0  0  0  0  0  0  0  0  0  0  0  0
    3.9183  -10.3811   18.1245 C   0  0  0  0  0  0  0  0  0  0  0  0
    4.9740   -9.8432   17.7708 C   0  0  0  0  0  0  0  0  0  0  0  0
   11.4968   -3.7531   23.9465 C   0  0  0  0  0  0  0  0  0  0  0  0
    4.9720   -8.9897   16.8536 C   0  0  0  0  0  0  0  0  0  0  0  0
   11.8147   -4.6404   21.5015 C   0  0  0  0  0  0  0  0  0  0  0  0
   11.2228   -3.9702   22.6615 C   0  0  0  0  0  0  0  0  0  0  0  0
    6.2386   -8.6326   16.3242 C   0  0  0  0  0  0  0  0  0  0  0  0
    2.6261   -9.0191   16.7712 C   0  0  0  0  0  0  0  0  0  0  0  0
    9.2893   -5.9049   17.6487 C   0  0  0  0  0  0  0  0  0  0  0  0
   10.3278   -3.6201   17.5240 C   0  0  0  0  0  0  0  0  0  0  0  0
    6.8395   -7.3511   16.2328 N   0  0  0  0  0  0  0  0  0  0  0  0
   -0.9620  -11.2196   17.8177 N   0  0  0  0  0  0  0  0  0  0  0  0
   -0.5876  -11.6876   19.2184 C   0  0  0  0  0  0  0  0  0  0  0  0
   10.3339   -4.9045   19.7730 C   0  0  0  0  0  0  0  0  0  0  0  0
   10.2067   -4.8160   18.2060 C   0  0  0  0  0  0  0  0  0  0  0  0
    0.9416  -11.1408   19.2212 C   0  0  0  0  0  0  0  0  0  0  0  0
    1.0309  -12.0492   21.4167 C   0  0  0  0  0  0  0  0  0  0  0  0
   12.9924   -5.1055   21.9278 C   0  0  0  0  0  0  0  0  0  0  0  0
    9.4014   -4.7119   15.6607 C   0  0  0  0  0  0  0  0  0  0  0  0
    7.2447   -9.2150   15.9905 O   0  0  0  0  0  0  0  0  0  0  0  0
   12.6456   -4.4769   24.1056 O   0  0  0  0  0  0  0  0  0  0  0  0
    2.4864  -10.0372   17.3897 C   0  0  0  0  0  0  0  0  0  0  0  0
    3.6733   -8.6248   16.3000 C   0  0  0  0  0  0  0  0  0  0  0  0
    9.0896   -5.6316   16.6489 C   0  0  0  0  0  0  0  0  0  0  0  0
   -0.3728  -12.5265   21.1329 C   0  0  0  0  0  0  0  0  0  0  0  0
   -1.1285  -12.3088   20.0734 C   0  0  0  0  0  0  0  0  0  0  0  0
   10.1438   -3.6257   16.3504 C   0  0  0  0  0  0  0  0  0  0  0  0
    1.6197  -11.4485   20.6010 C   0  0  0  0  0  0  0  0  0  0  0  0
   11.3967   -4.6303   20.3110 O   0  0  0  0  0  0  0  0  0  0  0  0
    0.1061  -10.4693   17.2127 He  0  0  0  0  0  0  0  0  0  0  0  0
    7.8878   -6.6789   15.7809 He  0  0  0  0  0  0  0  0  0  0  0  0
  1  6  2  0
  1 21  4  0
  1 24  4  0
  2 11  1  0
  2 19  4  0
  2 20  4  0
  2 25  1  0
  2 29  3  0
  3  5  3  0
  3 12  1  0
  3 17  4  0
  3 19  2  0
  4  5  4  0
  4 18  4  0
  4 25  4  0
  5  7  4  0
  5 14  4  0
  5 32  4  0
  6  9  2  0
  6 24  4  0
  7 10  1  0
  7 26  4  0
  8  9  4  0
  8 14  4  0
  8 21  4  0
  8 32  1  0
  9 15  3  0
 10 13  1  0
 10 14  1  0
 11 25  4  0
 11 26  4  0
 12 16  4  0
 12 18  4  0
 12 27  4  0
 13 18  4  0
 13 30  4  0
 14 29  2  0
 15 25  1  0
 16 19  4  0
 16 29  4  0
 17 18  2  0
 17 27  1  0
 17 30  2  0
 19 23  4  0
 19 31  4  0
 20 28  4  0
 20 31  4  0
 21 28  2  0
 22 27  4  0
 22 30  4  0
 28 29  4  0
M  END
$$$$

 Created by Python create_sdf_string function

 34 38  0  0  0  0  0  0  0  0999 V2000
   13.5276   -5.0283   23.1813 C   0  0  0  0  0  0  0  0  0  0  0  0
    1.2783  -10.5273   18.0164 C   0  0  0  0  0  0  0  0  0  0  0  0
    9.0717   -6.9877   18.4528 F   0  0  0  0  0  0  0  0  0  0  0  0
    3.7329  -10.4524   18.1425 C   0  0  0  0  0  0  0  0  0  0  0  0
    4.8926   -9.9617   17.7488 C   0  0  0  0  0  0  0  0  0  0  0  0
   11.5747   -3.8767   23.8652 C   0  0  0  0  0  0  0  0  0  0  0  0
    4.9988   -8.9885   16.7919 C   0  0  0  0  0  0  0  0  0  0  0  0
   11.8366   -4.5681   21.6037 C   0  0  0  0  0  0  0  0  0  0  0  0
   11.0648   -3.9482   22.5668 C   0  0  0  0  0  0  0  0  0  0  0  0
    6.3324   -8.5675   16.3239 C   0  0  0  0  0  0  0  0  0  0  0  0
    2.6500   -9.0172   16.6149 C   0  0  0  0  0  0  0  0  0  0  0  0
    0.1222  -10.5334   17.2417 C   0  0  0  0  0  0  0  0  0  0  0  0
    9.3409   -5.8161   17.7409 C   0  0  0  0  0  0  0  0  0  0  0  0
    7.9730   -6.6848   15.8314 C   0  0  0  0  0  0  0  0  0  0  0  0
   10.4686   -3.7238   17.5616 C   0  0  0  0  0  0  0  0  0  0  0  0
    6.7756   -7.2199   16.3575 N   0  0  0  0  0  0  0  0  0  0  0  0
   -0.9046  -11.1836   17.8941 N   0  0  0  0  0  0  0  0  0  0  0  0
   -0.4316  -11.5950   19.1050 C   0  0  0  0  0  0  0  0  0  0  0  0
   10.3502   -4.8493   19.7439 C   0  0  0  0  0  0  0  0  0  0  0  0
   10.0724   -4.8044   18.3353 C   0  0  0  0  0  0  0  0  0  0  0  0
    0.9030  -11.1747   19.2117 C   0  0  0  0  0  0  0  0  0  0  0  0
    0.9260  -12.1125   21.4679 C   0  0  0  0  0  0  0  0  0  0  0  0
   13.0659   -5.1138   21.8863 C   0  0  0  0  0  0  0  0  0  0  0  0
    9.3018   -4.6284   15.7029 C   0  0  0  0  0  0  0  0  0  0  0  0
    7.0550   -9.3906   15.9973 O   0  0  0  0  0  0  0  0  0  0  0  0
   12.7780   -4.4187   24.1181 C   0  0  0  0  0  0  0  0  0  0  0  0
    2.5315   -9.9956   17.5949 C   0  0  0  0  0  0  0  0  0  0  0  0
    3.8219   -8.5226   16.2831 C   0  0  0  0  0  0  0  0  0  0  0  0
    8.8851   -5.6920   16.4459 C   0  0  0  0  0  0  0  0  0  0  0  0
   -0.3779  -12.5594   21.3044 C   0  0  0  0  0  0  0  0  0  0  0  0
   -1.0891  -12.3180   20.1424 C   0  0  0  0  0  0  0  0  0  0  0  0
   10.1079   -3.6329   16.2293 C   0  0  0  0  0  0  0  0  0  0  0  0
    1.5612  -11.4353   20.4383 C   0  0  0  0  0  0  0  0  0  0  0  0
   11.4554   -4.5858   20.2889 O   0  0  0  0  0  0  0  0  0  0  0  0
  1 23  4  0
  1 26  4  0
  2 12  4  0
  2 21  4  0
  2 27  1  0
  3 13  1  0
  4  5  4  0
  4 27  4  0
  5  7  4  0
  6  9  4  0
  6 26  4  0
  7 10  1  0
  7 28  4  0
  8  9  4  0
  8 23  4  0
  8 34  1  0
 10 16  1  0
 10 25  2  0
 11 27  4  0
 11 28  4  0
 12 17  4  0
 13 20  4  0
 13 29  4  0
 14 16  1  0
 14 29  1  0
 15 20  4  0
 15 32  4  0
 17 18  4  0
 18 21  4  0
 18 31  4  0
 19 20  1  0
 19 34  1  0
 21 33  4  0
 22 30  4  0
 22 33  4  0
 24 29  4  0
 24 32  4  0
 30 31  4  0
M  END
$$$$

 Created by Python create_sdf_string function

 34 61  0  0  0  0  0  0  0  0999 V2000
   13.5752   -4.9417   23.2493 C   0  0  0  0  0  0  0  0  0  0  0  0
    1.4005  -10.5618   18.1157 C   0  0  0  0  0  0  0  0  0  0  0  0
    8.8768   -6.9230   18.3321 F   0  0  0  0  0  0  0  0  0  0  0  0
    3.8061  -10.3401   18.1399 C   0  0  0  0  0  0  0  0  0  0  0  0
    4.8469   -9.9423   17.8519 C   0  0  0  0  0  0  0  0  0  0  0  0
   11.3657   -3.8210   23.8386 C   0  0  0  0  0  0  0  0  0  0  0  0
    4.9676   -8.8702   16.7561 C   0  0  0  0  0  0  0  0  0  0  0  0
   11.8864   -4.5489   21.5725 C   0  0  0  0  0  0  0  0  0  0  0  0
   10.9938   -3.8665   22.5579 C   0  0  0  0  0  0  0  0  0  0  0  0
    6.1462   -8.8127   16.3395 C   0  0  0  0  0  0  0  0  0  0  0  0
    2.6576   -9.1648   16.5211 C   0  0  0  0  0  0  0  0  0  0  0  0
    0.1625  -10.6015   17.2206 C   0  0  0  0  0  0  0  0  0  0  0  0
    9.2313   -5.9061   17.8201 C   0  0  0  0  0  0  0  0  0  0  0  0
    8.1243   -6.5638   15.7063 C   0  0  0  0  0  0  0  0  0  0  0  0
   10.6662   -3.7075   17.4943 C   0  0  0  0  0  0  0  0  0  0  0  0
    6.8981   -7.3551   16.2913 C   0  0  0  0  0  0  0  0  0  0  0  0
   -0.8165  -11.1203   17.8125 N   0  0  0  0  0  0  0  0  0  0  0  0
   -0.4944  -11.4384   18.9921 C   0  0  0  0  0  0  0  0  0  0  0  0
   10.4913   -4.8154   19.6937 C   0  0  0  0  0  0  0  0  0  0  0  0
   10.0079   -4.9110   18.3234 C   0  0  0  0  0  0  0  0  0  0  0  0
    0.7610  -11.2606   19.2901 C   0  0  0  0  0  0  0  0  0  0  0  0
    0.8735  -12.1484   21.5596 C   0  0  0  0  0  0  0  0  0  0  0  0
   12.9309   -5.2116   21.9409 C   0  0  0  0  0  0  0  0  0  0  0  0
    9.4303   -4.7314   15.6571 C   0  0  0  0  0  0  0  0  0  0  0  0
    7.2597   -9.3788   16.0660 O   0  0  0  0  0  0  0  0  0  0  0  0
   12.8238   -4.3966   24.1947 C   0  0  0  0  0  0  0  0  0  0  0  0
    2.4188   -9.9760   17.5861 F   0  0  0  0  0  0  0  0  0  0  0  0
    3.8585   -8.6429   16.2569 S   0  0  0  0  0  0  0  0  0  0  0  0
    8.9268   -5.6413   16.2248 C   0  0  0  0  0  0  0  0  0  0  0  0
   -0.4591  -12.5066   21.1309 C   0  0  0  0  0  0  0  0  0  0  0  0
   -0.9718  -12.3212   20.0045 C   0  0  0  0  0  0  0  0  0  0  0  0
   10.2065   -3.3642   16.2458 C   0  0  0  0  0  0  0  0  0  0  0  0
    1.5604  -11.2163   20.3585 C   0  0  0  0  0  0  0  0  0  0  0  0
   11.3031   -4.5725   20.1345 He  0  0  0  0  0  0  0  0  0  0  0  0
  1 23  4  0
  1 26  4  0
  2  3  3  0
  2 12  3  0
  2 21  4  0
  2 27  1  0
  3 13  2  0
  3 17  4  0
  3 26  3  0
  3 30  1  0
  4  5  4  0
  4 10  2  0
  4 27  4  0
  5  7  4  0
  5 15  2  0
  6  9  4  0
  6 12  2  0
  6 26  4  0
  7 10  1  0
  7 28  4  0
  8  9  4  0
  8 13  4  0
  8 14  4  0
  8 21  2  0
  8 23  4  0
  9 10  4  0
 10 15  4  0
 10 16  1  0
 10 17  4  0
 10 18  4  0
 10 25  2  0
 10 30  3  0
 11 27  4  0
 11 28  4  0
 12 17  4  0
 13 20  4  0
 13 23  2  0
 13 29  4  0
 14 16  1  0
 14 29  1  0
 15 20  4  0
 15 32  4  0
 17 18  4  0
 17 26  4  0
 18 21  4  0
 18 31  4  0
 19 20  1  0
 19 22  4  0
 21 33  4  0
 22 30  4  0
 22 33  4  0
 23 25  3  0
 24 29  4  0
 24 32  4  0
 25 31  1  0
 27 32  4  0
 28 33  3  0
 29 32  1  0
 30 31  4  0
 31 33  2  0
 32 33  4  0
M  END
$$$$

 Created by Python create_sdf_string function

 34 38  0  0  0  0  0  0  0  0999 V2000
   13.5203   -5.0141   23.2226 C   0  0  0  0  0  0  0  0  0  0  0  0
    1.3325  -10.5322   18.0105 C   0  0  0  0  0  0  0  0  0  0  0  0
    8.8715   -6.9031   18.3839 F   0  0  0  0  0  0  0  0  0  0  0  0
    3.7464  -10.3899   18.2016 C   0  0  0  0  0  0  0  0  0  0  0  0
    4.9017   -9.9072   17.8134 C   0  0  0  0  0  0  0  0  0  0  0  0
   11.4991   -3.8277   23.8702 C   0  0  0  0  0  0  0  0  0  0  0  0
    5.0445   -9.0263   16.7909 C   0  0  0  0  0  0  0  0  0  0  0  0
   11.8485   -4.5332   21.6232 C   0  0  0  0  0  0  0  0  0  0  0  0
   11.0261   -3.9175   22.5607 C   0  0  0  0  0  0  0  0  0  0  0  0
    6.3910   -8.6144   16.3455 C   0  0  0  0  0  0  0  0  0  0  0  0
    2.6771   -9.1071   16.5496 C   0  0  0  0  0  0  0  0  0  0  0  0
    0.1902  -10.5609   17.2124 C   0  0  0  0  0  0  0  0  0  0  0  0
    9.2892   -5.8099   17.7158 C   0  0  0  0  0  0  0  0  0  0  0  0
    8.0288   -6.6825   15.7344 C   0  0  0  0  0  0  0  0  0  0  0  0
   10.5458   -3.7269   17.5330 C   0  0  0  0  0  0  0  0  0  0  0  0
    6.8220   -7.2347   16.3164 C   0  0  0  0  0  0  0  0  0  0  0  0
   -0.8509  -11.1930   17.8452 N   0  0  0  0  0  0  0  0  0  0  0  0
   -0.4177  -11.5741   19.0669 C   0  0  0  0  0  0  0  0  0  0  0  0
   10.3690   -4.8502   19.7212 C   0  0  0  0  0  0  0  0  0  0  0  0
   10.0999   -4.7963   18.2795 C   0  0  0  0  0  0  0  0  0  0  0  0
    0.9220  -11.1422   19.2289 C   0  0  0  0  0  0  0  0  0  0  0  0
    0.8402  -12.0782   21.4781 C   0  0  0  0  0  0  0  0  0  0  0  0
   13.0620   -5.0939   21.9236 C   0  0  0  0  0  0  0  0  0  0  0  0
    9.3516   -4.5786   15.6496 C   0  0  0  0  0  0  0  0  0  0  0  0
    7.1102   -9.4384   16.0725 O   0  0  0  0  0  0  0  0  0  0  0  0
   12.7404   -4.3723   24.1703 C   0  0  0  0  0  0  0  0  0  0  0  0
    2.5624  -10.0196   17.5826 C   0  0  0  0  0  0  0  0  0  0  0  0
    3.8864   -8.6092   16.1940 C   0  0  0  0  0  0  0  0  0  0  0  0
    8.8919   -5.6520   16.3744 C   0  0  0  0  0  0  0  0  0  0  0  0
   -0.4477  -12.5410   21.2460 C   0  0  0  0  0  0  0  0  0  0  0  0
   -1.1095  -12.2762   20.0670 C   0  0  0  0  0  0  0  0  0  0  0  0
   10.2037   -3.6344   16.1956 C   0  0  0  0  0  0  0  0  0  0  0  0
    1.5074  -11.3941   20.4739 C   0  0  0  0  0  0  0  0  0  0  0  0
   11.5213   -4.4986   20.2217 C   0  0  0  0  0  0  0  0  0  0  0  0
  1 23  4  0
  1 26  4  0
  2 12  4  0
  2 21  4  0
  2 27  1  0
  3 13  1  0
  4  5  4  0
  4 27  4  0
  5  7  4  0
  6  9  4  0
  6 26  4  0
  7 10  1  0
  7 28  4  0
  8  9  4  0
  8 23  4  0
  8 34  1  0
 10 16  1  0
 10 25  2  0
 11 27  4  0
 11 28  4  0
 12 17  4  0
 13 20  4  0
 13 29  4  0
 14 16  1  0
 14 29  1  0
 15 20  4  0
 15 32  4  0
 17 18  4  0
 18 21  4  0
 18 31  4  0
 19 20  1  0
 19 34  1  0
 21 33  4  0
 22 30  4  0
 22 33  4  0
 24 29  4  0
 24 32  4  0
 30 31  4  0
M  END
$$$$

 Created by Python create_sdf_string function

 34 59  0  0  0  0  0  0  0  0999 V2000
   13.4451   -5.0198   23.3166 C   0  0  0  0  0  0  0  0  0  0  0  0
    1.4337  -10.5301   18.0581 C   0  0  0  0  0  0  0  0  0  0  0  0
    8.8930   -6.8943   18.2629 F   0  0  0  0  0  0  0  0  0  0  0  0
    3.9182  -10.3818   18.3700 C   0  0  0  0  0  0  0  0  0  0  0  0
    5.0791   -9.8808   17.8401 C   0  0  0  0  0  0  0  0  0  0  0  0
   11.4340   -3.9246   24.0022 C   0  0  0  0  0  0  0  0  0  0  0  0
    5.0573   -8.9586   16.7291 C   0  0  0  0  0  0  0  0  0  0  0  0
   11.9319   -4.5984   21.6870 C   0  0  0  0  0  0  0  0  0  0  0  0
   11.1872   -3.8122   22.5812 C   0  0  0  0  0  0  0  0  0  0  0  0
    6.2898   -8.5720   16.2018 C   0  0  0  0  0  0  0  0  0  0  0  0
    2.5770   -9.1071   16.4724 C   0  0  0  0  0  0  0  0  0  0  0  0
    0.1110  -10.7496   17.1811 C   0  0  0  0  0  0  0  0  0  0  0  0
    9.2514   -5.7775   17.8690 C   0  0  0  0  0  0  0  0  0  0  0  0
    8.0694   -6.7112   15.7209 C   0  0  0  0  0  0  0  0  0  0  0  0
   10.4826   -3.8685   17.5423 C   0  0  0  0  0  0  0  0  0  0  0  0
    6.9633   -7.2295   16.3020 C   0  0  0  0  0  0  0  0  0  0  0  0
   -0.8180  -11.3430   17.9039 N   0  0  0  0  0  0  0  0  0  0  0  0
   -0.2094  -11.6474   19.0897 C   0  0  0  0  0  0  0  0  0  0  0  0
   10.3097   -4.9630   19.7047 C   0  0  0  0  0  0  0  0  0  0  0  0
   10.1132   -4.7531   18.2706 C   0  0  0  0  0  0  0  0  0  0  0  0
    0.8606  -11.1088   19.4067 C   0  0  0  0  0  0  0  0  0  0  0  0
    0.9001  -12.2010   21.4734 C   0  0  0  0  0  0  0  0  0  0  0  0
   13.0709   -4.9545   21.8987 C   0  0  0  0  0  0  0  0  0  0  0  0
    9.3377   -4.7029   15.6449 C   0  0  0  0  0  0  0  0  0  0  0  0
    7.1141   -9.4010   15.9609 O   0  0  0  0  0  0  0  0  0  0  0  0
   12.6993   -4.3261   24.2767 C   0  0  0  0  0  0  0  0  0  0  0  0
    2.6751  -10.0781   17.5672 C   0  0  0  0  0  0  0  0  0  0  0  0
    3.6816   -8.6005   16.0921 C   0  0  0  0  0  0  0  0  0  0  0  0
    8.9890   -5.7176   16.3341 C   0  0  0  0  0  0  0  0  0  0  0  0
   -0.6864  -12.6065   21.2795 C   0  0  0  0  0  0  0  0  0  0  0  0
   -1.1172  -12.3149   20.0776 C   0  0  0  0  0  0  0  0  0  0  0  0
   10.1373   -3.5639   16.3344 C   0  0  0  0  0  0  0  0  0  0  0  0
    1.6693  -11.6137   20.4752 C   0  0  0  0  0  0  0  0  0  0  0  0
   11.4675   -4.4656   20.2793 C   0  0  0  0  0  0  0  0  0  0  0  0
  1 23  4  0
  1 26  4  0
  2 12  4  0
  2 21  4  0
  2 27  1  0
  2 32  1  0
  3 13  1  0
  3 32  3  0
  4  5  4  0
  4 27  4  0
  4 30  3  0
  5  7  4  0
  5 15  2  0
  6  9  4  0
  6 15  1  0
  6 26  4  0
  6 33  2  0
  6 34  4  0
  7 10  1  0
  7 26  1  0
  7 28  4  0
  7 34  1  0
  8  9  4  0
  8 23  4  0
  8 34  1  0
 10 16  1  0
 10 25  2  0
 11 18  2  0
 11 27  4  0
 11 28  4  0
 12 17  4  0
 12 18  3  0
 12 19  2  0
 13 20  4  0
 13 29  4  0
 14 15  2  0
 14 16  1  0
 14 29  1  0
 15 20  4  0
 15 26  1  0
 16 34  4  0
 17 18  4  0
 17 27  3  0
 18 19  2  0
 18 21  4  0
 18 31  4  0
 19 34  1  0
 21 33  4  0
 22 29  3  0
 22 30  4  0
 24 25  2  0
 24 29  4  0
 24 31  3  0
 24 32  4  0
 26 30  1  0
 27 29  2  0
 27 33  4  0
 29 32  1  0
 30 31  4  0
M  END
$$$$

 Created by Python create_sdf_string function

 34 38  0  0  0  0  0  0  0  0999 V2000
   13.5285   -4.9762   23.3121 C   0  0  0  0  0  0  0  0  0  0  0  0
    1.4045  -10.6193   18.0557 C   0  0  0  0  0  0  0  0  0  0  0  0
    8.8623   -6.9340   18.3978 F   0  0  0  0  0  0  0  0  0  0  0  0
    3.8341  -10.3692   18.2577 C   0  0  0  0  0  0  0  0  0  0  0  0
    4.9742   -9.8699   17.8142 C   0  0  0  0  0  0  0  0  0  0  0  0
   11.5070   -3.8565   23.9369 C   0  0  0  0  0  0  0  0  0  0  0  0
    5.0396   -9.0053   16.7435 C   0  0  0  0  0  0  0  0  0  0  0  0
   11.9079   -4.4712   21.6724 C   0  0  0  0  0  0  0  0  0  0  0  0
   11.0825   -3.9030   22.6166 C   0  0  0  0  0  0  0  0  0  0  0  0
    6.3682   -8.5760   16.2680 C   0  0  0  0  0  0  0  0  0  0  0  0
    2.6839   -9.1404   16.5270 C   0  0  0  0  0  0  0  0  0  0  0  0
    0.2478  -10.6839   17.2739 C   0  0  0  0  0  0  0  0  0  0  0  0
    9.2827   -5.8057   17.7135 C   0  0  0  0  0  0  0  0  0  0  0  0
    8.0723   -6.7313   15.7601 C   0  0  0  0  0  0  0  0  0  0  0  0
   10.4883   -3.7528   17.5442 C   0  0  0  0  0  0  0  0  0  0  0  0
    6.8408   -7.2162   16.3247 C   0  0  0  0  0  0  0  0  0  0  0  0
   -0.8043  -11.3216   17.8958 N   0  0  0  0  0  0  0  0  0  0  0  0
   -0.3831  -11.6728   19.1296 C   0  0  0  0  0  0  0  0  0  0  0  0
   10.3709   -4.9085   19.7186 C   0  0  0  0  0  0  0  0  0  0  0  0
   10.0673   -4.8213   18.2979 C   0  0  0  0  0  0  0  0  0  0  0  0
    0.9906  -11.2639   19.2645 C   0  0  0  0  0  0  0  0  0  0  0  0
    0.8609  -12.2070   21.5184 C   0  0  0  0  0  0  0  0  0  0  0  0
   13.1242   -5.0324   21.9937 C   0  0  0  0  0  0  0  0  0  0  0  0
    9.3302   -4.6166   15.6608 C   0  0  0  0  0  0  0  0  0  0  0  0
    7.0498   -9.4099   15.9221 O   0  0  0  0  0  0  0  0  0  0  0  0
   12.7188   -4.4134   24.2599 C   0  0  0  0  0  0  0  0  0  0  0  0
    2.6331  -10.0336   17.6284 C   0  0  0  0  0  0  0  0  0  0  0  0
    3.8659   -8.6379   16.1404 C   0  0  0  0  0  0  0  0  0  0  0  0
    8.8962   -5.6814   16.3906 C   0  0  0  0  0  0  0  0  0  0  0  0
   -0.4634  -12.5870   21.3274 C   0  0  0  0  0  0  0  0  0  0  0  0
   -1.1155  -12.3146   20.1279 C   0  0  0  0  0  0  0  0  0  0  0  0
   10.1440   -3.6693   16.2204 C   0  0  0  0  0  0  0  0  0  0  0  0
    1.5562  -11.5519   20.5263 C   0  0  0  0  0  0  0  0  0  0  0  0
   11.5664   -4.4122   20.2600 C   0  0  0  0  0  0  0  0  0  0  0  0
  1 23  4  0
  1 26  4  0
  2 12  4  0
  2 21  4  0
  2 27  1  0
  3 13  1  0
  4  5  4  0
  4 27  4  0
  5  7  4  0
  6  9  4  0
  6 26  4  0
  7 10  1  0
  7 28  4  0
  8  9  4  0
  8 23  4  0
  8 34  1  0
 10 16  1  0
 10 25  2  0
 11 27  4  0
 11 28  4  0
 12 17  4  0
 13 20  4  0
 13 29  4  0
 14 16  1  0
 14 29  1  0
 15 20  4  0
 15 32  4  0
 17 18  4  0
 18 21  4  0
 18 31  4  0
 19 20  1  0
 19 34  1  0
 21 33  4  0
 22 30  4  0
 22 33  4  0
 24 29  4  0
 24 32  4  0
 30 31  4  0
M  END
$$$$

 Created by Python create_sdf_string function

 34 50  0  0  0  0  0  0  0  0999 V2000
   13.5889   -4.8903   23.3089 C   0  0  0  0  0  0  0  0  0  0  0  0
    1.4802  -10.4858   17.8916 C   0  0  0  0  0  0  0  0  0  0  0  0
    8.8959   -7.0019   18.5109 F   0  0  0  0  0  0  0  0  0  0  0  0
    3.7301  -10.4266   18.2869 C   0  0  0  0  0  0  0  0  0  0  0  0
    4.8181   -9.7638   17.7827 O   0  0  0  0  0  0  0  0  0  0  0  0
   11.6275   -3.9026   23.9609 C   0  0  0  0  0  0  0  0  0  0  0  0
    5.1577   -8.9875   16.6068 C   0  0  0  0  0  0  0  0  0  0  0  0
   11.8692   -4.6136   21.5928 C   0  0  0  0  0  0  0  0  0  0  0  0
   10.8706   -4.0706   22.5743 Br  0  0  0  0  0  0  0  0  0  0  0  0
    6.2762   -8.6310   16.1417 C   0  0  0  0  0  0  0  0  0  0  0  0
    2.6932   -9.0200   16.5446 C   0  0  0  0  0  0  0  0  0  0  0  0
    0.2952  -10.6851   17.3122 C   0  0  0  0  0  0  0  0  0  0  0  0
    9.3716   -5.9087   17.7122 C   0  0  0  0  0  0  0  0  0  0  0  0
    8.2253   -6.8118   15.6443 C   0  0  0  0  0  0  0  0  0  0  0  0
   10.4348   -3.7078   17.4860 C   0  0  0  0  0  0  0  0  0  0  0  0
    6.9170   -7.2650   16.2996 C   0  0  0  0  0  0  0  0  0  0  0  0
   -0.8036  -11.3027   17.8481 N   0  0  0  0  0  0  0  0  0  0  0  0
   -0.4288  -11.6763   19.1000 C   0  0  0  0  0  0  0  0  0  0  0  0
   10.0270   -4.5873   18.3572 C   0  0  0  0  0  0  0  0  0  0  0  0
    1.1035  -11.3618   19.3464 C   0  0  0  0  0  0  0  0  0  0  0  0
    0.8370  -12.3256   21.4784 C   0  0  0  0  0  0  0  0  0  0  0  0
   13.2380   -4.9774   21.9614 C   0  0  0  0  0  0  0  0  0  0  0  0
    9.3740   -4.7293   15.5995 C   0  0  0  0  0  0  0  0  0  0  0  0
    7.0370   -9.4784   15.8401 O   0  0  0  0  0  0  0  0  0  0  0  0
   12.7690   -4.3479   24.2681 C   0  0  0  0  0  0  0  0  0  0  0  0
    2.5834  -10.0803   17.4412 C   0  0  0  0  0  0  0  0  0  0  0  0
    3.9755   -8.7154   15.9976 C   0  0  0  0  0  0  0  0  0  0  0  0
   -0.5348  -12.5039   21.3563 C   0  0  0  0  0  0  0  0  0  0  0  0
   -0.9767  -12.2121   20.0457 C   0  0  0  0  0  0  0  0  0  0  0  0
   10.2347   -3.5759   16.2443 C   0  0  0  0  0  0  0  0  0  0  0  0
    1.4592  -11.3333   20.5404 C   0  0  0  0  0  0  0  0  0  0  0  0
   11.5594   -4.4506   20.1828 C   0  0  0  0  0  0  0  0  0  0  0  0
   10.4627   -4.9028   19.7998 He  0  0  0  0  0  0  0  0  0  0  0  0
    8.9257   -5.7147   16.3785 He  0  0  0  0  0  0  0  0  0  0  0  0
  1 22  4  0
  1 25  4  0
  1 29  4  0
  2 12  4  0
  2 20  4  0
  2 26  1  0
  2 32  2  0
  3 13  1  0
  4  5  4  0
  4 13  3  0
  4 26  4  0
  5  7  4  0
  6  9  4  0
  6 12  2  0
  6 25  4  0
  7 10  1  0
  7 27  4  0
  8  9  4  0
  8 22  4  0
  8 32  1  0
  9 14  1  0
  9 22  2  0
 10 16  1  0
 10 24  2  0
 11 18  4  0
 11 25  1  0
 11 26  4  0
 11 27  4  0
 12 17  4  0
 12 26  3  0
 13 17  4  0
 13 18  1  0
 13 19  4  0
 13 20  4  0
 13 26  2  0
 13 32  4  0
 14 16  1  0
 15 19  1  0
 15 21  2  0
 15 30  4  0
 17 18  4  0
 17 28  1  0
 18 20  4  0
 18 29  4  0
 20 26  3  0
 21 28  4  0
 21 31  4  0
 22 30  2  0
 25 31  4  0
 28 29  4  0
M  END
$$$$

 Created by Python create_sdf_string function

 34 38  0  0  0  0  0  0  0  0999 V2000
   13.6281   -4.8822   23.2864 C   0  0  0  0  0  0  0  0  0  0  0  0
    1.3971  -10.5898   18.0050 C   0  0  0  0  0  0  0  0  0  0  0  0
    8.9411   -6.9330   18.4748 F   0  0  0  0  0  0  0  0  0  0  0  0
    3.8003  -10.3365   18.2018 C   0  0  0  0  0  0  0  0  0  0  0  0
    4.9267   -9.8563   17.7690 C   0  0  0  0  0  0  0  0  0  0  0  0
   11.5172   -3.9611   23.9246 C   0  0  0  0  0  0  0  0  0  0  0  0
    5.0620   -9.0211   16.6900 C   0  0  0  0  0  0  0  0  0  0  0  0
   11.9577   -4.5258   21.6455 C   0  0  0  0  0  0  0  0  0  0  0  0
   11.0556   -4.0533   22.5922 C   0  0  0  0  0  0  0  0  0  0  0  0
    6.3971   -8.6168   16.2068 C   0  0  0  0  0  0  0  0  0  0  0  0
    2.7041   -9.1525   16.4540 C   0  0  0  0  0  0  0  0  0  0  0  0
    0.2738  -10.6814   17.2337 C   0  0  0  0  0  0  0  0  0  0  0  0
    9.3180   -5.8010   17.7426 C   0  0  0  0  0  0  0  0  0  0  0  0
    8.1744   -6.8219   15.7631 C   0  0  0  0  0  0  0  0  0  0  0  0
   10.4832   -3.6933   17.5423 C   0  0  0  0  0  0  0  0  0  0  0  0
    6.9061   -7.2685   16.3005 C   0  0  0  0  0  0  0  0  0  0  0  0
   -0.7603  -11.3152   17.8762 N   0  0  0  0  0  0  0  0  0  0  0  0
   -0.3607  -11.6413   19.1156 C   0  0  0  0  0  0  0  0  0  0  0  0
   10.3919   -4.8430   19.7242 C   0  0  0  0  0  0  0  0  0  0  0  0
   10.0809   -4.7843   18.3219 C   0  0  0  0  0  0  0  0  0  0  0  0
    0.9833  -11.2231   19.2507 C   0  0  0  0  0  0  0  0  0  0  0  0
    0.8623  -12.1391   21.5329 C   0  0  0  0  0  0  0  0  0  0  0  0
   13.2239   -4.9944   21.9787 C   0  0  0  0  0  0  0  0  0  0  0  0
    9.3887   -4.6607   15.6500 C   0  0  0  0  0  0  0  0  0  0  0  0
    7.0200   -9.4465   15.7932 O   0  0  0  0  0  0  0  0  0  0  0  0
   12.7861   -4.3597   24.2347 C   0  0  0  0  0  0  0  0  0  0  0  0
    2.6181  -10.0197   17.5484 C   0  0  0  0  0  0  0  0  0  0  0  0
    3.9094   -8.6470   16.0611 C   0  0  0  0  0  0  0  0  0  0  0  0
    8.9567   -5.7259   16.4045 C   0  0  0  0  0  0  0  0  0  0  0  0
   -0.4602  -12.5396   21.3269 C   0  0  0  0  0  0  0  0  0  0  0  0
   -1.0955  -12.2924   20.1119 C   0  0  0  0  0  0  0  0  0  0  0  0
   10.1547   -3.6484   16.2184 C   0  0  0  0  0  0  0  0  0  0  0  0
    1.5673  -11.5306   20.5135 C   0  0  0  0  0  0  0  0  0  0  0  0
   11.6183   -4.4359   20.2232 C   0  0  0  0  0  0  0  0  0  0  0  0
  1 23  4  0
  1 26  4  0
  2 12  4  0
  2 21  4  0
  2 27  1  0
  3 13  1  0
  4  5  4  0
  4 27  4  0
  5  7  4  0
  6  9  4  0
  6 26  4  0
  7 10  1  0
  7 28  4  0
  8  9  4  0
  8 23  4  0
  8 34  1  0
 10 16  1  0
 10 25  2  0
 11 27  4  0
 11 28  4  0
 12 17  4  0
 13 20  4  0
 13 29  4  0
 14 16  1  0
 14 29  1  0
 15 20  4  0
 15 32  4  0
 17 18  4  0
 18 21  4  0
 18 31  4  0
 19 20  1  0
 19 34  1  0
 21 33  4  0
 22 30  4  0
 22 33  4  0
 24 29  4  0
 24 32  4  0
 30 31  4  0
M  END
$$$$

 Created by Python create_sdf_string function

 34 45  0  0  0  0  0  0  0  0999 V2000
   13.6042   -4.9340   23.2025 C   0  0  0  0  0  0  0  0  0  0  0  0
    1.3776  -10.5003   17.9628 C   0  0  0  0  0  0  0  0  0  0  0  0
    8.9237   -6.9053   18.3869 F   0  0  0  0  0  0  0  0  0  0  0  0
    3.8563  -10.4762   18.3149 C   0  0  0  0  0  0  0  0  0  0  0  0
    4.8989   -9.8933   17.7245 C   0  0  0  0  0  0  0  0  0  0  0  0
   11.6237   -3.9870   23.8712 C   0  0  0  0  0  0  0  0  0  0  0  0
    4.9879   -9.0072   16.8572 C   0  0  0  0  0  0  0  0  0  0  0  0
   12.1365   -4.5137   21.6191 C   0  0  0  0  0  0  0  0  0  0  0  0
   11.0797   -4.1089   22.5299 C   0  0  0  0  0  0  0  0  0  0  0  0
    6.2610   -8.6408   16.0369 C   0  0  0  0  0  0  0  0  0  0  0  0
    2.7160   -9.1277   16.4187 C   0  0  0  0  0  0  0  0  0  0  0  0
    0.3331  -10.6635   17.2766 C   0  0  0  0  0  0  0  0  0  0  0  0
    9.2731   -5.9138   17.8699 C   0  0  0  0  0  0  0  0  0  0  0  0
    8.0944   -6.7209   15.8190 C   0  0  0  0  0  0  0  0  0  0  0  0
   10.4740   -3.8560   17.5041 C   0  0  0  0  0  0  0  0  0  0  0  0
    6.8403   -7.2904   16.2689 C   0  0  0  0  0  0  0  0  0  0  0  0
   -0.8493  -11.2812   18.0014 N   0  0  0  0  0  0  0  0  0  0  0  0
   -0.4578  -11.5656   19.1470 N   0  0  0  0  0  0  0  0  0  0  0  0
   10.3991   -4.9301   19.8118 C   0  0  0  0  0  0  0  0  0  0  0  0
    0.9734  -11.2629   19.2500 C   0  0  0  0  0  0  0  0  0  0  0  0
    0.8486  -12.1765   21.6054 C   0  0  0  0  0  0  0  0  0  0  0  0
   13.0919   -4.9079   21.9411 C   0  0  0  0  0  0  0  0  0  0  0  0
    9.3019   -4.6992   15.7585 C   0  0  0  0  0  0  0  0  0  0  0  0
    6.9975   -9.5463   15.7887 O   0  0  0  0  0  0  0  0  0  0  0  0
   12.7313   -4.1608   24.3718 C   0  0  0  0  0  0  0  0  0  0  0  0
    2.6038  -10.0678   17.5609 C   0  0  0  0  0  0  0  0  0  0  0  0
    3.9138   -8.6591   16.0536 C   0  0  0  0  0  0  0  0  0  0  0  0
    9.0160   -5.7489   16.4805 C   0  0  0  0  0  0  0  0  0  0  0  0
   -0.4926  -12.5115   21.3754 C   0  0  0  0  0  0  0  0  0  0  0  0
   -1.1702  -12.3186   20.0113 C   0  0  0  0  0  0  0  0  0  0  0  0
   10.2071   -3.6222   16.2382 C   0  0  0  0  0  0  0  0  0  0  0  0
    1.6323  -11.4353   20.6430 C   0  0  0  0  0  0  0  0  0  0  0  0
   11.5521   -4.5663   20.1303 C   0  0  0  0  0  0  0  0  0  0  0  0
   10.1290   -4.7954   18.3176 He  0  0  0  0  0  0  0  0  0  0  0  0
  1 22  4  0
  2 12  4  0
  2 19  2  0
  2 20  4  0
  2 26  1  0
  3 13  3  0
  4  5  4  0
  4 26  4  0
  5  7  4  0
  6  9  4  0
  6 25  4  0
  7 10  1  0
  7 13  1  0
  7 27  4  0
  8  9  4  0
  8 22  4  0
  8 28  2  0
  8 33  1  0
 10 16  1  0
 10 24  2  0
 11 26  4  0
 11 27  4  0
 12 17  4  0
 13 28  4  0
 13 32  1  0
 14 16  1  0
 14 28  1  0
 15 22  3  0
 15 31  4  0
 16 30  3  0
 17 18  4  0
 17 22  4  0
 17 27  1  0
 18 20  4  0
 18 30  4  0
 19 22  2  0
 19 33  1  0
 20 22  2  0
 20 32  4  0
 21 29  4  0
 21 32  4  0
 23 28  4  0
 23 31  4  0
 25 30  3  0
 29 30  4  0
M  END
$$$$

 Created by Python create_sdf_string function

 34 38  0  0  0  0  0  0  0  0999 V2000
   13.6445   -4.8373   23.2841 C   0  0  0  0  0  0  0  0  0  0  0  0
    1.3854  -10.6027   18.0427 C   0  0  0  0  0  0  0  0  0  0  0  0
    8.9083   -6.9285   18.4459 F   0  0  0  0  0  0  0  0  0  0  0  0
    3.8306  -10.4054   18.2287 C   0  0  0  0  0  0  0  0  0  0  0  0
    4.9602   -9.8986   17.7720 C   0  0  0  0  0  0  0  0  0  0  0  0
   11.5175   -3.9267   23.8841 C   0  0  0  0  0  0  0  0  0  0  0  0
    5.0455   -9.0478   16.6961 C   0  0  0  0  0  0  0  0  0  0  0  0
   12.0068   -4.5264   21.6371 C   0  0  0  0  0  0  0  0  0  0  0  0
   11.1036   -4.0573   22.5755 C   0  0  0  0  0  0  0  0  0  0  0  0
    6.3478   -8.6371   16.1931 C   0  0  0  0  0  0  0  0  0  0  0  0
    2.6965   -9.1596   16.4946 C   0  0  0  0  0  0  0  0  0  0  0  0
    0.2532  -10.6508   17.2828 C   0  0  0  0  0  0  0  0  0  0  0  0
    9.3049   -5.8426   17.7738 C   0  0  0  0  0  0  0  0  0  0  0  0
    8.0654   -6.7596   15.8306 C   0  0  0  0  0  0  0  0  0  0  0  0
   10.5256   -3.7864   17.5371 C   0  0  0  0  0  0  0  0  0  0  0  0
    6.8452   -7.2911   16.2881 C   0  0  0  0  0  0  0  0  0  0  0  0
   -0.8067  -11.2597   17.9254 N   0  0  0  0  0  0  0  0  0  0  0  0
   -0.3949  -11.6238   19.1555 N   0  0  0  0  0  0  0  0  0  0  0  0
   10.4024   -4.8903   19.7474 C   0  0  0  0  0  0  0  0  0  0  0  0
   10.1045   -4.8347   18.3221 C   0  0  0  0  0  0  0  0  0  0  0  0
    0.9650  -11.2132   19.2946 C   0  0  0  0  0  0  0  0  0  0  0  0
    0.8556  -12.1155   21.5568 C   0  0  0  0  0  0  0  0  0  0  0  0
   13.2620   -4.9559   21.9891 C   0  0  0  0  0  0  0  0  0  0  0  0
    9.3246   -4.6743   15.7070 C   0  0  0  0  0  0  0  0  0  0  0  0
    6.9751   -9.4714   15.7667 O   0  0  0  0  0  0  0  0  0  0  0  0
   12.7873   -4.2970   24.2397 C   0  0  0  0  0  0  0  0  0  0  0  0
    2.6315  -10.0562   17.5869 C   0  0  0  0  0  0  0  0  0  0  0  0
    3.8817   -8.6629   16.1067 C   0  0  0  0  0  0  0  0  0  0  0  0
    8.9064   -5.7176   16.4597 C   0  0  0  0  0  0  0  0  0  0  0  0
   -0.4855  -12.5342   21.3659 C   0  0  0  0  0  0  0  0  0  0  0  0
   -1.1160  -12.2815   20.1357 C   0  0  0  0  0  0  0  0  0  0  0  0
   10.1449   -3.7007   16.2334 C   0  0  0  0  0  0  0  0  0  0  0  0
    1.5543  -11.4867   20.5510 C   0  0  0  0  0  0  0  0  0  0  0  0
   11.6718   -4.4941   20.2015 C   0  0  0  0  0  0  0  0  0  0  0  0
  1 23  4  0
  1 26  4  0
  2 12  4  0
  2 21  4  0
  2 27  1  0
  3 13  1  0
  4  5  4  0
  4 27  4  0
  5  7  4  0
  6  9  4  0
  6 26  4  0
  7 10  1  0
  7 28  4  0
  8  9  4  0
  8 23  4  0
  8 34  1  0
 10 16  1  0
 10 25  2  0
 11 27  4  0
 11 28  4  0
 12 17  4  0
 13 20  4  0
 13 29  4  0
 14 16  1  0
 14 29  1  0
 15 20  4  0
 15 32  4  0
 17 18  4  0
 18 21  4  0
 18 31  4  0
 19 20  1  0
 19 34  1  0
 21 33  4  0
 22 30  4  0
 22 33  4  0
 24 29  4  0
 24 32  4  0
 30 31  4  0
M  END
$$$$

 Created by Python create_sdf_string function

 34 47  0  0  0  0  0  0  0  0999 V2000
   13.6568   -4.8607   23.2410 C   0  0  0  0  0  0  0  0  0  0  0  0
    1.4567  -10.5566   18.0146 C   0  0  0  0  0  0  0  0  0  0  0  0
    8.8477   -6.8042   18.5068 F   0  0  0  0  0  0  0  0  0  0  0  0
    3.7290  -10.2949   18.2386 C   0  0  0  0  0  0  0  0  0  0  0  0
    4.9938   -9.7092   17.7570 C   0  0  0  0  0  0  0  0  0  0  0  0
   11.5641   -3.9742   23.8849 C   0  0  0  0  0  0  0  0  0  0  0  0
    5.1286   -9.0559   16.8549 C   0  0  0  0  0  0  0  0  0  0  0  0
   12.0808   -4.4563   21.5635 C   0  0  0  0  0  0  0  0  0  0  0  0
   11.1422   -4.0960   22.5595 C   0  0  0  0  0  0  0  0  0  0  0  0
    6.3658   -8.6476   16.0590 C   0  0  0  0  0  0  0  0  0  0  0  0
    2.6599   -9.1273   16.4319 C   0  0  0  0  0  0  0  0  0  0  0  0
    0.2893  -10.6240   17.1875 C   0  0  0  0  0  0  0  0  0  0  0  0
    9.3052   -5.7896   17.7534 C   0  0  0  0  0  0  0  0  0  0  0  0
    8.0969   -6.8592   15.9156 C   0  0  0  0  0  0  0  0  0  0  0  0
   10.5995   -3.8635   17.4922 C   0  0  0  0  0  0  0  0  0  0  0  0
    6.7875   -7.2139   16.2136 C   0  0  0  0  0  0  0  0  0  0  0  0
   -0.8005  -11.0827   17.7801 N   0  0  0  0  0  0  0  0  0  0  0  0
   -0.4915  -11.6295   19.1443 C   0  0  0  0  0  0  0  0  0  0  0  0
   10.4741   -4.9442   19.6874 C   0  0  0  0  0  0  0  0  0  0  0  0
   10.1346   -4.9114   18.3674 C   0  0  0  0  0  0  0  0  0  0  0  0
    0.8725  -11.2018   19.3251 C   0  0  0  0  0  0  0  0  0  0  0  0
    0.9383  -12.2522   21.6674 C   0  0  0  0  0  0  0  0  0  0  0  0
   13.2796   -4.9312   22.0485 C   0  0  0  0  0  0  0  0  0  0  0  0
    9.3861   -4.7437   15.7417 C   0  0  0  0  0  0  0  0  0  0  0  0
    6.9596   -9.4679   15.7491 O   0  0  0  0  0  0  0  0  0  0  0  0
   12.7167   -4.2685   24.2165 C   0  0  0  0  0  0  0  0  0  0  0  0
    2.6626  -10.0762   17.6185 C   0  0  0  0  0  0  0  0  0  0  0  0
    3.8147   -8.7525   16.0480 C   0  0  0  0  0  0  0  0  0  0  0  0
    8.9042   -5.7136   16.5000 C   0  0  0  0  0  0  0  0  0  0  0  0
   -0.3351  -12.6624   21.3638 C   0  0  0  0  0  0  0  0  0  0  0  0
   -1.0361  -12.2142   20.0563 C   0  0  0  0  0  0  0  0  0  0  0  0
   10.1441   -3.6650   16.3627 C   0  0  0  0  0  0  0  0  0  0  0  0
    1.6884  -11.6459   20.6375 He  0  0  0  0  0  0  0  0  0  0  0  0
   11.6623   -4.5872   20.0791 He  0  0  0  0  0  0  0  0  0  0  0  0
  1  5  4  0
  1 23  4  0
  1 26  4  0
  2 12  4  0
  2 21  4  0
  2 27  1  0
  3 10  1  0
  3 13  1  0
  4  5  4  0
  4 27  3  0
  5  7  4  0
  6  9  4  0
  6 10  4  0
  6 13  4  0
  6 26  4  0
  7 10  1  0
  7 16  4  0
  7 28  4  0
  7 32  1  0
  8  9  4  0
  8 23  4  0
 10 16  1  0
 10 25  2  0
 11 27  4  0
 11 28  4  0
 12 17  4  0
 13 20  4  0
 13 26  2  0
 13 29  4  0
 13 32  4  0
 14 16  1  0
 14 29  1  0
 15 20  4  0
 15 27  4  0
 15 32  4  0
 16 31  4  0
 17 18  4  0
 18 21  4  0
 18 25  4  0
 18 31  4  0
 19 20  1  0
 22 30  4  0
 23 28  1  0
 24 29  4  0
 24 32  4  0
 28 30  1  0
 30 31  4  0
M  END
$$$$

 Created by Python create_sdf_string function

 34 38  0  0  0  0  0  0  0  0999 V2000
   13.6796   -4.8224   23.2852 C   0  0  0  0  0  0  0  0  0  0  0  0
    1.4090  -10.5869   18.0440 C   0  0  0  0  0  0  0  0  0  0  0  0
    8.8380   -6.8468   18.5370 F   0  0  0  0  0  0  0  0  0  0  0  0
    3.8235  -10.2998   18.2605 C   0  0  0  0  0  0  0  0  0  0  0  0
    4.9605   -9.7973   17.8124 C   0  0  0  0  0  0  0  0  0  0  0  0
   11.5147   -3.9554   23.8552 C   0  0  0  0  0  0  0  0  0  0  0  0
    5.0481   -9.0198   16.6845 C   0  0  0  0  0  0  0  0  0  0  0  0
   12.0511   -4.5236   21.6078 C   0  0  0  0  0  0  0  0  0  0  0  0
   11.1311   -4.0630   22.5338 C   0  0  0  0  0  0  0  0  0  0  0  0
    6.3488   -8.6088   16.1596 C   0  0  0  0  0  0  0  0  0  0  0  0
    2.6921   -9.2037   16.4693 C   0  0  0  0  0  0  0  0  0  0  0  0
    0.2675  -10.5916   17.2603 C   0  0  0  0  0  0  0  0  0  0  0  0
    9.3008   -5.8137   17.7938 C   0  0  0  0  0  0  0  0  0  0  0  0
    8.1077   -6.8123   15.8693 C   0  0  0  0  0  0  0  0  0  0  0  0
   10.5802   -3.8194   17.5341 C   0  0  0  0  0  0  0  0  0  0  0  0
    6.8294   -7.2543   16.2562 C   0  0  0  0  0  0  0  0  0  0  0  0
   -0.7874  -11.1806   17.9071 N   0  0  0  0  0  0  0  0  0  0  0  0
   -0.3540  -11.5958   19.1488 C   0  0  0  0  0  0  0  0  0  0  0  0
   10.4883   -4.9270   19.7157 C   0  0  0  0  0  0  0  0  0  0  0  0
   10.1503   -4.8567   18.3263 C   0  0  0  0  0  0  0  0  0  0  0  0
    1.0049  -11.2419   19.2832 C   0  0  0  0  0  0  0  0  0  0  0  0
    0.9413  -12.2304   21.5334 C   0  0  0  0  0  0  0  0  0  0  0  0
   13.3089   -4.9197   21.9695 C   0  0  0  0  0  0  0  0  0  0  0  0
    9.3259   -4.6838   15.7383 C   0  0  0  0  0  0  0  0  0  0  0  0
    6.9705   -9.4331   15.7189 O   0  0  0  0  0  0  0  0  0  0  0  0
   12.7947   -4.3335   24.2207 C   0  0  0  0  0  0  0  0  0  0  0  0
    2.6258  -10.0294   17.5970 C   0  0  0  0  0  0  0  0  0  0  0  0
    3.8865   -8.7080   16.0693 C   0  0  0  0  0  0  0  0  0  0  0  0
    8.9006   -5.7405   16.4805 C   0  0  0  0  0  0  0  0  0  0  0  0
   -0.4007  -12.6056   21.3316 C   0  0  0  0  0  0  0  0  0  0  0  0
   -1.0598  -12.2703   20.1524 C   0  0  0  0  0  0  0  0  0  0  0  0
   10.1640   -3.7430   16.2433 C   0  0  0  0  0  0  0  0  0  0  0  0
    1.6130  -11.5604   20.5179 C   0  0  0  0  0  0  0  0  0  0  0  0
   11.7130   -4.5361   20.2055 C   0  0  0  0  0  0  0  0  0  0  0  0
  1 23  4  0
  1 26  4  0
  2 12  4  0
  2 21  4  0
  2 27  1  0
  3 13  1  0
  4  5  4  0
  4 27  4  0
  5  7  4  0
  6  9  4  0
  6 26  4  0
  7 10  1  0
  7 28  4  0
  8  9  4  0
  8 23  4  0
  8 34  1  0
 10 16  1  0
 10 25  2  0
 11 27  4  0
 11 28  4  0
 12 17  4  0
 13 20  4  0
 13 29  4  0
 14 16  1  0
 14 29  1  0
 15 20  4  0
 15 32  4  0
 17 18  4  0
 18 21  4  0
 18 31  4  0
 19 20  1  0
 19 34  1  0
 21 33  4  0
 22 30  4  0
 22 33  4  0
 24 29  4  0
 24 32  4  0
 30 31  4  0
M  END
$$$$

 Created by Python create_sdf_string function

 34 56  0  0  0  0  0  0  0  0999 V2000
   13.6586   -4.8174   23.3439 C   0  0  0  0  0  0  0  0  0  0  0  0
    1.4499  -10.5691   18.0657 C   0  0  0  0  0  0  0  0  0  0  0  0
    8.8272   -6.8825   18.4683 F   0  0  0  0  0  0  0  0  0  0  0  0
    3.8460  -10.3215   18.2951 C   0  0  0  0  0  0  0  0  0  0  0  0
    4.9107   -9.7028   17.7992 C   0  0  0  0  0  0  0  0  0  0  0  0
   11.5628   -3.9714   23.8246 C   0  0  0  0  0  0  0  0  0  0  0  0
    5.0458   -9.0914   16.7279 C   0  0  0  0  0  0  0  0  0  0  0  0
   12.1991   -4.4711   21.5825 C   0  0  0  0  0  0  0  0  0  0  0  0
   11.1503   -4.1521   22.6201 C   0  0  0  0  0  0  0  0  0  0  0  0
    6.4024   -8.5717   16.1363 C   0  0  0  0  0  0  0  0  0  0  0  0
    2.6567   -9.1409   16.4254 C   0  0  0  0  0  0  0  0  0  0  0  0
    9.2594   -5.8210   17.7949 C   0  0  0  0  0  0  0  0  0  0  0  0
    7.9891   -6.8804   15.8321 C   0  0  0  0  0  0  0  0  0  0  0  0
   10.5674   -3.7706   17.5111 C   0  0  0  0  0  0  0  0  0  0  0  0
    6.7449   -7.1268   16.2427 C   0  0  0  0  0  0  0  0  0  0  0  0
   -0.7344  -11.2913   17.9687 N   0  0  0  0  0  0  0  0  0  0  0  0
   -0.2682  -11.6433   19.0320 C   0  0  0  0  0  0  0  0  0  0  0  0
   10.3813   -5.0645   19.7125 P   0  0  0  0  0  0  0  0  0  0  0  0
    9.9908   -4.8152   18.4610 C   0  0  0  0  0  0  0  0  0  0  0  0
    0.9836  -11.1671   19.1288 C   0  0  0  0  0  0  0  0  0  0  0  0
    0.9762  -12.2068   21.5501 C   0  0  0  0  0  0  0  0  0  0  0  0
   13.2793   -4.8637   21.9824 C   0  0  0  0  0  0  0  0  0  0  0  0
    9.3959   -4.6292   15.6799 C   0  0  0  0  0  0  0  0  0  0  0  0
    6.9944   -9.4884   15.8014 O   0  0  0  0  0  0  0  0  0  0  0  0
   12.7954   -4.2687   24.0884 C   0  0  0  0  0  0  0  0  0  0  0  0
    2.5735   -9.9986   17.5547 C   0  0  0  0  0  0  0  0  0  0  0  0
    3.8571   -8.7070   16.0683 C   0  0  0  0  0  0  0  0  0  0  0  0
    9.0014   -5.8097   16.2973 C   0  0  0  0  0  0  0  0  0  0  0  0
   -0.3721  -12.6699   21.2493 C   0  0  0  0  0  0  0  0  0  0  0  0
   -1.1388  -12.3486   20.1987 C   0  0  0  0  0  0  0  0  0  0  0  0
   10.1893   -3.7450   16.0962 C   0  0  0  0  0  0  0  0  0  0  0  0
    1.5600  -11.5962   20.5079 C   0  0  0  0  0  0  0  0  0  0  0  0
   11.6867   -4.4616   20.2632 C   0  0  0  0  0  0  0  0  0  0  0  0
    0.2464  -10.6139   17.3107 He  0  0  0  0  0  0  0  0  0  0  0  0
  1  7  3  0
  1 22  4  0
  1 25  4  0
  1 27  1  0
  2 13  1  0
  2 26  1  0
  3 12  1  0
  3 14  2  0
  4  5  4  0
  4 19  3  0
  4 26  4  0
  5  7  4  0
  6  9  4  0
  6 25  4  0
  7 10  1  0
  7 12  4  0
  7 27  4  0
  8  9  4  0
  8 22  4  0
  8 28  1  0
  8 33  1  0
  9 11  3  0
  9 21  3  0
 10 15  1  0
 10 24  2  0
 10 27  4  0
 10 30  3  0
 11 14  4  0
 11 20  1  0
 11 26  4  0
 11 27  4  0
 12 19  4  0
 12 28  4  0
 12 31  3  0
 13 15  1  0
 13 28  1  0
 14 25  2  0
 14 31  4  0
 16 17  4  0
 17 20  4  0
 17 30  4  0
 18 19  1  0
 18 33  1  0
 19 30  1  0
 20 22  3  0
 20 25  4  0
 21 24  4  0
 21 29  4  0
 21 30  4  0
 21 32  4  0
 22 28  3  0
 23 31  4  0
 24 26  3  0
 24 28  2  0
 27 28  2  0
 29 30  4  0
M  END
$$$$

 Created by Python create_sdf_string function

 34 38  0  0  0  0  0  0  0  0999 V2000
   13.7096   -4.7744   23.2742 C   0  0  0  0  0  0  0  0  0  0  0  0
    1.3976  -10.5797   18.0268 C   0  0  0  0  0  0  0  0  0  0  0  0
    8.8140   -6.8903   18.4981 F   0  0  0  0  0  0  0  0  0  0  0  0
    3.7943  -10.2986   18.2715 C   0  0  0  0  0  0  0  0  0  0  0  0
    4.9379   -9.7971   17.8276 C   0  0  0  0  0  0  0  0  0  0  0  0
   11.5524   -3.9761   23.8536 C   0  0  0  0  0  0  0  0  0  0  0  0
    5.0441   -9.0040   16.7100 C   0  0  0  0  0  0  0  0  0  0  0  0
   12.0532   -4.5046   21.6184 C   0  0  0  0  0  0  0  0  0  0  0  0
   11.1209   -4.0847   22.5402 C   0  0  0  0  0  0  0  0  0  0  0  0
    6.3670   -8.5803   16.1891 C   0  0  0  0  0  0  0  0  0  0  0  0
    2.6981   -9.1867   16.4570 C   0  0  0  0  0  0  0  0  0  0  0  0
    0.2751  -10.6132   17.2940 N   0  0  0  0  0  0  0  0  0  0  0  0
    9.2655   -5.8211   17.7589 C   0  0  0  0  0  0  0  0  0  0  0  0
    8.0971   -6.8229   15.7827 C   0  0  0  0  0  0  0  0  0  0  0  0
   10.5396   -3.7934   17.5082 C   0  0  0  0  0  0  0  0  0  0  0  0
    6.8102   -7.2220   16.2720 C   0  0  0  0  0  0  0  0  0  0  0  0
   -0.7640  -11.2678   17.9281 N   0  0  0  0  0  0  0  0  0  0  0  0
   -0.3412  -11.6630   19.1422 C   0  0  0  0  0  0  0  0  0  0  0  0
   10.4626   -4.9418   19.6901 C   0  0  0  0  0  0  0  0  0  0  0  0
   10.1040   -4.8506   18.3062 C   0  0  0  0  0  0  0  0  0  0  0  0
    0.9838  -11.2563   19.2582 C   0  0  0  0  0  0  0  0  0  0  0  0
    0.9668  -12.2299   21.5144 C   0  0  0  0  0  0  0  0  0  0  0  0
   13.3257   -4.8828   21.9618 C   0  0  0  0  0  0  0  0  0  0  0  0
    9.3856   -4.6934   15.6553 C   0  0  0  0  0  0  0  0  0  0  0  0
    7.0035   -9.4269   15.7828 O   0  0  0  0  0  0  0  0  0  0  0  0
   12.8252   -4.3160   24.1984 C   0  0  0  0  0  0  0  0  0  0  0  0
    2.6169  -10.0137   17.5773 C   0  0  0  0  0  0  0  0  0  0  0  0
    3.8747   -8.6994   16.0716 C   0  0  0  0  0  0  0  0  0  0  0  0
    8.8991   -5.7448   16.4143 C   0  0  0  0  0  0  0  0  0  0  0  0
   -0.3454  -12.6284   21.3376 C   0  0  0  0  0  0  0  0  0  0  0  0
   -1.0357  -12.3580   20.1532 C   0  0  0  0  0  0  0  0  0  0  0  0
   10.1878   -3.7424   16.1965 C   0  0  0  0  0  0  0  0  0  0  0  0
    1.6130  -11.5652   20.4941 C   0  0  0  0  0  0  0  0  0  0  0  0
   11.6872   -4.4599   20.1991 C   0  0  0  0  0  0  0  0  0  0  0  0
  1 23  4  0
  1 26  4  0
  2 12  4  0
  2 21  4  0
  2 27  1  0
  3 13  1  0
  4  5  4  0
  4 27  4  0
  5  7  4  0
  6  9  4  0
  6 26  4  0
  7 10  1  0
  7 28  4  0
  8  9  4  0
  8 23  4  0
  8 34  1  0
 10 16  1  0
 10 25  2  0
 11 27  4  0
 11 28  4  0
 12 17  4  0
 13 20  4  0
 13 29  4  0
 14 16  1  0
 14 29  1  0
 15 20  4  0
 15 32  4  0
 17 18  4  0
 18 21  4  0
 18 31  4  0
 19 20  1  0
 19 34  1  0
 21 33  4  0
 22 30  4  0
 22 33  4  0
 24 29  4  0
 24 32  4  0
 30 31  4  0
M  END
$$$$

 Created by Python create_sdf_string function

 34 45  0  0  0  0  0  0  0  0999 V2000
   13.7643   -4.7002   23.3567 C   0  0  0  0  0  0  0  0  0  0  0  0
    1.3973  -10.5197   18.0255 C   0  0  0  0  0  0  0  0  0  0  0  0
    8.7209   -6.9389   18.3778 F   0  0  0  0  0  0  0  0  0  0  0  0
    3.7365  -10.3343   18.3227 F   0  0  0  0  0  0  0  0  0  0  0  0
    4.9522   -9.9044   17.9556 C   0  0  0  0  0  0  0  0  0  0  0  0
   11.5692   -3.9669   23.8574 C   0  0  0  0  0  0  0  0  0  0  0  0
    5.0405   -9.0325   16.7264 C   0  0  0  0  0  0  0  0  0  0  0  0
   12.0958   -4.5262   21.6053 C   0  0  0  0  0  0  0  0  0  0  0  0
   11.0795   -3.9505   22.5236 C   0  0  0  0  0  0  0  0  0  0  0  0
    6.4316   -8.4504   16.1237 C   0  0  0  0  0  0  0  0  0  0  0  0
    2.6866   -9.0760   16.4366 C   0  0  0  0  0  0  0  0  0  0  0  0
    0.2448  -10.6288   17.2742 N   0  0  0  0  0  0  0  0  0  0  0  0
    9.2538   -5.8072   17.8173 C   0  0  0  0  0  0  0  0  0  0  0  0
   10.6842   -3.7335   17.5634 C   0  0  0  0  0  0  0  0  0  0  0  0
    6.8824   -7.2108   16.1696 C   0  0  0  0  0  0  0  0  0  0  0  0
   -0.6730  -11.3271   17.9341 N   0  0  0  0  0  0  0  0  0  0  0  0
   -0.2896  -11.7531   19.1568 C   0  0  0  0  0  0  0  0  0  0  0  0
   10.5155   -4.8867   19.6616 C   0  0  0  0  0  0  0  0  0  0  0  0
   10.1037   -4.7906   18.3055 C   0  0  0  0  0  0  0  0  0  0  0  0
    1.1208  -11.1855   19.1518 C   0  0  0  0  0  0  0  0  0  0  0  0
    1.0052  -12.3569   21.5362 C   0  0  0  0  0  0  0  0  0  0  0  0
   13.2619   -4.9854   21.8783 C   0  0  0  0  0  0  0  0  0  0  0  0
    9.4254   -4.6693   15.6048 C   0  0  0  0  0  0  0  0  0  0  0  0
    6.8370   -9.4956   15.8281 O   0  0  0  0  0  0  0  0  0  0  0  0
   12.8624   -4.1955   24.0698 C   0  0  0  0  0  0  0  0  0  0  0  0
    2.5877  -10.0934   17.5805 C   0  0  0  0  0  0  0  0  0  0  0  0
    3.9655   -8.6985   16.1926 C   0  0  0  0  0  0  0  0  0  0  0  0
    8.8785   -5.7843   16.3634 C   0  0  0  0  0  0  0  0  0  0  0  0
   -0.3671  -12.6615   21.3678 C   0  0  0  0  0  0  0  0  0  0  0  0
   -1.0219  -12.3069   20.0805 C   0  0  0  0  0  0  0  0  0  0  0  0
   10.1842   -3.6438   16.2867 C   0  0  0  0  0  0  0  0  0  0  0  0
    1.5697  -11.6811   20.5746 C   0  0  0  0  0  0  0  0  0  0  0  0
   11.6567   -4.5152   20.3205 C   0  0  0  0  0  0  0  0  0  0  0  0
    8.1212   -6.8465   15.8361 He  0  0  0  0  0  0  0  0  0  0  0  0
  1 22  4  0
  1 25  4  0
  2 12  4  0
  2 20  4  0
  2 24  4  0
  2 26  1  0
  3 13  1  0
  3 21  3  0
  4  5  4  0
  4 26  4  0
  4 27  2  0
  5  7  4  0
  6  9  4  0
  6 12  4  0
  6 19  1  0
  6 25  4  0
  7 10  1  0
  7 27  4  0
  7 29  4  0
  8  9  4  0
  8 22  4  0
  8 33  1  0
  9 29  1  0
  9 31  1  0
 10 15  1  0
 10 24  2  0
 11 26  4  0
 11 27  4  0
 12 16  4  0
 13 19  4  0
 13 28  4  0
 14 19  4  0
 14 31  4  0
 16 17  4  0
 17 19  3  0
 17 20  4  0
 17 30  4  0
 18 19  1  0
 18 33  1  0
 20 32  4  0
 21 29  4  0
 21 32  4  0
 23 28  4  0
 24 32  3  0
 29 30  4  0
M  END
$$$$

 Created by Python create_sdf_string function

 34 38  0  0  0  0  0  0  0  0999 V2000
   13.7665   -4.7459   23.2635 C   0  0  0  0  0  0  0  0  0  0  0  0
    1.4144  -10.5978   18.0381 C   0  0  0  0  0  0  0  0  0  0  0  0
    8.7342   -6.8855   18.4108 F   0  0  0  0  0  0  0  0  0  0  0  0
    3.7930  -10.3305   18.2901 N   0  0  0  0  0  0  0  0  0  0  0  0
    4.9464   -9.8620   17.8631 C   0  0  0  0  0  0  0  0  0  0  0  0
   11.5848   -3.8917   23.8691 C   0  0  0  0  0  0  0  0  0  0  0  0
    5.0522   -9.0290   16.7618 C   0  0  0  0  0  0  0  0  0  0  0  0
   12.0533   -4.5018   21.6364 C   0  0  0  0  0  0  0  0  0  0  0  0
   11.1328   -4.0147   22.5562 C   0  0  0  0  0  0  0  0  0  0  0  0
    6.3390   -8.5877   16.2373 C   0  0  0  0  0  0  0  0  0  0  0  0
    2.7016   -9.1611   16.5143 C   0  0  0  0  0  0  0  0  0  0  0  0
    0.3139  -10.6195   17.2931 N   0  0  0  0  0  0  0  0  0  0  0  0
    9.2743   -5.7947   17.7534 C   0  0  0  0  0  0  0  0  0  0  0  0
    8.1089   -6.7849   15.8309 C   0  0  0  0  0  0  0  0  0  0  0  0
   10.5841   -3.7687   17.5215 C   0  0  0  0  0  0  0  0  0  0  0  0
    6.8798   -7.2412   16.2336 C   0  0  0  0  0  0  0  0  0  0  0  0
   -0.7004  -11.3079   17.9346 N   0  0  0  0  0  0  0  0  0  0  0  0
   -0.2709  -11.6881   19.1561 C   0  0  0  0  0  0  0  0  0  0  0  0
   10.5258   -4.8947   19.6885 C   0  0  0  0  0  0  0  0  0  0  0  0
   10.1326   -4.8188   18.2929 C   0  0  0  0  0  0  0  0  0  0  0  0
    1.0585  -11.2801   19.2661 C   0  0  0  0  0  0  0  0  0  0  0  0
    0.9925  -12.2979   21.5008 C   0  0  0  0  0  0  0  0  0  0  0  0
   13.3250   -4.9213   21.9592 C   0  0  0  0  0  0  0  0  0  0  0  0
    9.3787   -4.6798   15.6803 C   0  0  0  0  0  0  0  0  0  0  0  0
    6.9232   -9.4131   15.8033 O   0  0  0  0  0  0  0  0  0  0  0  0
   12.8755   -4.2275   24.1799 C   0  0  0  0  0  0  0  0  0  0  0  0
    2.6265  -10.0174   17.6164 C   0  0  0  0  0  0  0  0  0  0  0  0
    3.9135   -8.6664   16.1337 C   0  0  0  0  0  0  0  0  0  0  0  0
    8.9136   -5.7246   16.4347 C   0  0  0  0  0  0  0  0  0  0  0  0
   -0.3601  -12.6678   21.3405 C   0  0  0  0  0  0  0  0  0  0  0  0
   -0.9996  -12.3687   20.1537 C   0  0  0  0  0  0  0  0  0  0  0  0
   10.1987   -3.7135   16.2073 C   0  0  0  0  0  0  0  0  0  0  0  0
    1.6418  -11.6287   20.4824 C   0  0  0  0  0  0  0  0  0  0  0  0
   11.7003   -4.5083   20.2441 C   0  0  0  0  0  0  0  0  0  0  0  0
  1 23  4  0
  1 26  4  0
  2 12  4  0
  2 21  4  0
  2 27  1  0
  3 13  1  0
  4  5  4  0
  4 27  4  0
  5  7  4  0
  6  9  4  0
  6 26  4  0
  7 10  1  0
  7 28  4  0
  8  9  4  0
  8 23  4  0
  8 34  1  0
 10 16  1  0
 10 25  2  0
 11 27  4  0
 11 28  4  0
 12 17  4  0
 13 20  4  0
 13 29  4  0
 14 16  1  0
 14 29  1  0
 15 20  4  0
 15 32  4  0
 17 18  4  0
 18 21  4  0
 18 31  4  0
 19 20  1  0
 19 34  1  0
 21 33  4  0
 22 30  4  0
 22 33  4  0
 24 29  4  0
 24 32  4  0
 30 31  4  0
M  END
$$$$

 Created by Python create_sdf_string function

 34 43  0  0  0  0  0  0  0  0999 V2000
   13.6506   -4.7794   23.2797 C   0  0  0  0  0  0  0  0  0  0  0  0
    1.3714  -10.6462   18.1376 C   0  0  0  0  0  0  0  0  0  0  0  0
    8.6995   -6.8954   18.4654 F   0  0  0  0  0  0  0  0  0  0  0  0
    3.8042  -10.3497   18.3004 N   0  0  0  0  0  0  0  0  0  0  0  0
    4.9070   -9.9194   17.8976 C   0  0  0  0  0  0  0  0  0  0  0  0
   11.5590   -3.8932   23.9765 C   0  0  0  0  0  0  0  0  0  0  0  0
   11.9982   -4.4382   21.6128 C   0  0  0  0  0  0  0  0  0  0  0  0
   11.1949   -4.0066   22.5708 C   0  0  0  0  0  0  0  0  0  0  0  0
    6.4162   -8.4830   16.3056 C   0  0  0  0  0  0  0  0  0  0  0  0
    2.7754   -9.2485   16.4773 C   0  0  0  0  0  0  0  0  0  0  0  0
    0.2044  -10.5540   17.3533 N   0  0  0  0  0  0  0  0  0  0  0  0
    9.3030   -5.8360   17.7025 C   0  0  0  0  0  0  0  0  0  0  0  0
    8.1396   -6.7640   15.8669 C   0  0  0  0  0  0  0  0  0  0  0  0
   10.6273   -3.9492   17.5081 C   0  0  0  0  0  0  0  0  0  0  0  0
    6.9232   -7.2609   16.3035 C   0  0  0  0  0  0  0  0  0  0  0  0
   -0.6988  -11.3827   17.8985 N   0  0  0  0  0  0  0  0  0  0  0  0
   -0.2236  -11.6841   19.1560 C   0  0  0  0  0  0  0  0  0  0  0  0
   10.5105   -4.9766   19.7314 C   0  0  0  0  0  0  0  0  0  0  0  0
   10.1208   -4.9087   18.2651 C   0  0  0  0  0  0  0  0  0  0  0  0
    1.0143  -11.2475   19.2068 C   0  0  0  0  0  0  0  0  0  0  0  0
    1.0159  -12.2322   21.5683 C   0  0  0  0  0  0  0  0  0  0  0  0
   13.2242   -4.8879   21.9635 C   0  0  0  0  0  0  0  0  0  0  0  0
    9.3277   -4.7531   15.6808 C   0  0  0  0  0  0  0  0  0  0  0  0
    6.9925   -9.4235   15.8047 S   0  0  0  0  0  0  0  0  0  0  0  0
   12.8307   -4.1582   24.1640 C   0  0  0  0  0  0  0  0  0  0  0  0
    2.6609  -10.1155   17.7078 C   0  0  0  0  0  0  0  0  0  0  0  0
    3.8882   -8.6114   16.2645 C   0  0  0  0  0  0  0  0  0  0  0  0
    8.8692   -5.6865   16.3976 C   0  0  0  0  0  0  0  0  0  0  0  0
   -0.2717  -12.5398   21.3558 C   0  0  0  0  0  0  0  0  0  0  0  0
   -0.9904  -12.3405   20.1465 C   0  0  0  0  0  0  0  0  0  0  0  0
   10.2660   -3.7368   16.2086 C   0  0  0  0  0  0  0  0  0  0  0  0
    1.6698  -11.5908   20.5344 C   0  0  0  0  0  0  0  0  0  0  0  0
   11.6656   -4.4928   20.2746 C   0  0  0  0  0  0  0  0  0  0  0  0
    4.9842   -9.0847   16.7378 He  0  0  0  0  0  0  0  0  0  0  0  0
  1 22  4  0
  1 25  4  0
  2 20  4  0
  2 26  1  0
  3 12  1  0
  3 24  2  0
  3 25  2  0
  4  5  4  0
  4 13  2  0
  4 26  4  0
  5 19  2  0
  6  8  4  0
  6 25  4  0
  6 28  4  0
  7  8  4  0
  7 20  3  0
  7 22  4  0
  7 29  4  0
  7 33  1  0
  9 15  1  0
  9 24  2  0
 10 26  4  0
 10 27  4  0
 11 16  4  0
 12 19  4  0
 12 28  4  0
 13 15  1  0
 14 19  4  0
 14 31  4  0
 16 17  4  0
 17 20  4  0
 17 22  1  0
 17 30  4  0
 18 19  1  0
 18 33  1  0
 20 32  4  0
 21 29  4  0
 21 32  4  0
 22 29  2  0
 23 28  4  0
 23 31  4  0
 29 30  4  0
 30 32  3  0
M  END
$$$$

 Created by Python create_sdf_string function

 34 38  0  0  0  0  0  0  0  0999 V2000
   13.7092   -4.7601   23.2772 C   0  0  0  0  0  0  0  0  0  0  0  0
    1.4268  -10.6219   18.1014 C   0  0  0  0  0  0  0  0  0  0  0  0
    8.7353   -6.8718   18.4607 F   0  0  0  0  0  0  0  0  0  0  0  0
    3.8205  -10.3884   18.3141 N   0  0  0  0  0  0  0  0  0  0  0  0
    4.9230   -9.9016   17.8786 C   0  0  0  0  0  0  0  0  0  0  0  0
   11.5638   -3.8634   23.9178 C   0  0  0  0  0  0  0  0  0  0  0  0
    5.0583   -9.0413   16.8165 C   0  0  0  0  0  0  0  0  0  0  0  0
   12.0256   -4.4627   21.6564 C   0  0  0  0  0  0  0  0  0  0  0  0
   11.1367   -3.9870   22.6023 C   0  0  0  0  0  0  0  0  0  0  0  0
    6.3468   -8.5828   16.3014 C   0  0  0  0  0  0  0  0  0  0  0  0
    2.7280   -9.2047   16.5571 C   0  0  0  0  0  0  0  0  0  0  0  0
    0.3093  -10.6276   17.3563 N   0  0  0  0  0  0  0  0  0  0  0  0
    9.2704   -5.8294   17.7454 C   0  0  0  0  0  0  0  0  0  0  0  0
    8.0804   -6.7643   15.8456 C   0  0  0  0  0  0  0  0  0  0  0  0
   10.6337   -3.8951   17.5005 C   0  0  0  0  0  0  0  0  0  0  0  0
    6.9018   -7.2559   16.3491 C   0  0  0  0  0  0  0  0  0  0  0  0
   -0.7136  -11.3321   17.9562 N   0  0  0  0  0  0  0  0  0  0  0  0
   -0.2651  -11.7005   19.1855 C   0  0  0  0  0  0  0  0  0  0  0  0
   10.5279   -4.9623   19.6943 C   0  0  0  0  0  0  0  0  0  0  0  0
   10.1501   -4.9050   18.2803 C   0  0  0  0  0  0  0  0  0  0  0  0
    1.0687  -11.2832   19.3151 C   0  0  0  0  0  0  0  0  0  0  0  0
    1.0163  -12.2060   21.5432 C   0  0  0  0  0  0  0  0  0  0  0  0
   13.2866   -4.8893   21.9762 C   0  0  0  0  0  0  0  0  0  0  0  0
    9.3657   -4.6831   15.6874 C   0  0  0  0  0  0  0  0  0  0  0  0
    6.9531   -9.4019   15.8345 O   0  0  0  0  0  0  0  0  0  0  0  0
   12.8659   -4.2247   24.2145 C   0  0  0  0  0  0  0  0  0  0  0  0
    2.6488  -10.0652   17.6467 C   0  0  0  0  0  0  0  0  0  0  0  0
    3.9103   -8.6829   16.1987 C   0  0  0  0  0  0  0  0  0  0  0  0
    8.8993   -5.7228   16.4264 C   0  0  0  0  0  0  0  0  0  0  0  0
   -0.3112  -12.5887   21.3810 C   0  0  0  0  0  0  0  0  0  0  0  0
   -0.9647  -12.3622   20.2085 C   0  0  0  0  0  0  0  0  0  0  0  0
   10.2436   -3.7760   16.2026 C   0  0  0  0  0  0  0  0  0  0  0  0
    1.6826  -11.5741   20.5051 C   0  0  0  0  0  0  0  0  0  0  0  0
   11.6788   -4.4541   20.2650 C   0  0  0  0  0  0  0  0  0  0  0  0
  1 23  4  0
  1 26  4  0
  2 12  4  0
  2 21  4  0
  2 27  1  0
  3 13  1  0
  4  5  4  0
  4 27  4  0
  5  7  4  0
  6  9  4  0
  6 26  4  0
  7 10  1  0
  7 28  4  0
  8  9  4  0
  8 23  4  0
  8 34  1  0
 10 16  1  0
 10 25  2  0
 11 27  4  0
 11 28  4  0
 12 17  4  0
 13 20  4  0
 13 29  4  0
 14 16  1  0
 14 29  1  0
 15 20  4  0
 15 32  4  0
 17 18  4  0
 18 21  4  0
 18 31  4  0
 19 20  1  0
 19 34  1  0
 21 33  4  0
 22 30  4  0
 22 33  4  0
 24 29  4  0
 24 32  4  0
 30 31  4  0
M  END
$$$$

 Created by Python create_sdf_string function

 34 40  0  0  0  0  0  0  0  0999 V2000
   13.7584   -4.8551   23.3120 O   0  0  0  0  0  0  0  0  0  0  0  0
    1.3933  -10.7058   18.1003 C   0  0  0  0  0  0  0  0  0  0  0  0
    8.7113   -6.8800   18.5183 F   0  0  0  0  0  0  0  0  0  0  0  0
    3.8517  -10.3817   18.4096 N   0  0  0  0  0  0  0  0  0  0  0  0
    4.9237   -9.7886   17.9049 C   0  0  0  0  0  0  0  0  0  0  0  0
   11.6094   -3.7912   23.9741 C   0  0  0  0  0  0  0  0  0  0  0  0
    5.0580   -9.0755   16.7686 C   0  0  0  0  0  0  0  0  0  0  0  0
   12.0374   -4.5033   21.6743 C   0  0  0  0  0  0  0  0  0  0  0  0
   11.1252   -3.8927   22.5341 C   0  0  0  0  0  0  0  0  0  0  0  0
    6.2793   -8.5602   16.2900 C   0  0  0  0  0  0  0  0  0  0  0  0
    2.6926   -9.2353   16.5144 C   0  0  0  0  0  0  0  0  0  0  0  0
    0.3145  -10.5867   17.3962 N   0  0  0  0  0  0  0  0  0  0  0  0
    9.3210   -5.8218   17.7730 C   0  0  0  0  0  0  0  0  0  0  0  0
    8.1423   -6.7220   15.7948 C   0  0  0  0  0  0  0  0  0  0  0  0
   10.6408   -3.8926   17.4779 C   0  0  0  0  0  0  0  0  0  0  0  0
    6.8905   -7.2362   16.3170 C   0  0  0  0  0  0  0  0  0  0  0  0
   -0.7805  -11.2516   17.9221 N   0  0  0  0  0  0  0  0  0  0  0  0
   -0.2958  -11.7038   19.0899 C   0  0  0  0  0  0  0  0  0  0  0  0
   10.6042   -4.8755   19.7605 C   0  0  0  0  0  0  0  0  0  0  0  0
   10.1657   -4.9004   18.2596 C   0  0  0  0  0  0  0  0  0  0  0  0
    1.0729  -11.2900   19.3029 C   0  0  0  0  0  0  0  0  0  0  0  0
    0.9482  -12.2051   21.5528 C   0  0  0  0  0  0  0  0  0  0  0  0
   13.3270   -4.8699   21.9323 C   0  0  0  0  0  0  0  0  0  0  0  0
    9.3842   -4.6215   15.6930 C   0  0  0  0  0  0  0  0  0  0  0  0
    6.9914   -9.4827   15.8090 O   0  0  0  0  0  0  0  0  0  0  0  0
   12.8596   -4.2138   24.2548 C   0  0  0  0  0  0  0  0  0  0  0  0
    2.6382   -9.9548   17.7197 C   0  0  0  0  0  0  0  0  0  0  0  0
    3.8932   -8.6906   16.2030 C   0  0  0  0  0  0  0  0  0  0  0  0
    8.7544   -5.7110   16.4493 C   0  0  0  0  0  0  0  0  0  0  0  0
   -0.3797  -12.5836   21.4016 C   0  0  0  0  0  0  0  0  0  0  0  0
   -0.8957  -12.4179   20.1747 C   0  0  0  0  0  0  0  0  0  0  0  0
   10.3038   -3.7550   16.2274 C   0  0  0  0  0  0  0  0  0  0  0  0
    1.6433  -11.5858   20.4638 C   0  0  0  0  0  0  0  0  0  0  0  0
   11.7129   -4.5503   20.2610 C   0  0  0  0  0  0  0  0  0  0  0  0
  1 23  4  0
  2 12  4  0
  2 21  4  0
  2 27  1  0
  3 13  1  0
  4  5  4  0
  4 27  4  0
  5  7  4  0
  5 20  2  0
  6  9  4  0
  6 26  4  0
  7 10  1  0
  7 28  4  0
  7 34  2  0
  8  9  4  0
  8 23  4  0
  8 28  2  0
  8 34  1  0
  9 18  4  0
 10 16  1  0
 10 25  2  0
 11 27  4  0
 11 28  4  0
 12 13  4  0
 12 17  4  0
 13 20  4  0
 13 28  3  0
 13 29  4  0
 14 16  1  0
 14 29  1  0
 17 18  4  0
 18 21  4  0
 19 20  1  0
 19 34  1  0
 21 33  4  0
 22 30  4  0
 22 33  4  0
 24 29  4  0
 24 32  4  0
 30 31  4  0
M  END
$$$$

 Created by Python create_sdf_string function

 34 38  0  0  0  0  0  0  0  0999 V2000
   13.7007   -4.7843   23.3134 C   0  0  0  0  0  0  0  0  0  0  0  0
    1.4430  -10.6243   18.1275 C   0  0  0  0  0  0  0  0  0  0  0  0
    8.7364   -6.8512   18.4778 F   0  0  0  0  0  0  0  0  0  0  0  0
    3.8187  -10.3191   18.3733 N   0  0  0  0  0  0  0  0  0  0  0  0
    4.9219   -9.8100   17.8997 C   0  0  0  0  0  0  0  0  0  0  0  0
   11.5856   -3.7861   23.9328 C   0  0  0  0  0  0  0  0  0  0  0  0
    5.0541   -9.0233   16.7986 C   0  0  0  0  0  0  0  0  0  0  0  0
   12.0527   -4.4602   21.6642 C   0  0  0  0  0  0  0  0  0  0  0  0
   11.1517   -3.9140   22.5876 C   0  0  0  0  0  0  0  0  0  0  0  0
    6.3439   -8.5984   16.2787 C   0  0  0  0  0  0  0  0  0  0  0  0
    2.7036   -9.2122   16.5523 C   0  0  0  0  0  0  0  0  0  0  0  0
    0.3381  -10.6100   17.3741 N   0  0  0  0  0  0  0  0  0  0  0  0
    9.2732   -5.8080   17.7632 C   0  0  0  0  0  0  0  0  0  0  0  0
    8.0676   -6.7307   15.8187 C   0  0  0  0  0  0  0  0  0  0  0  0
   10.6599   -3.8778   17.4845 C   0  0  0  0  0  0  0  0  0  0  0  0
    6.8753   -7.2678   16.3360 C   0  0  0  0  0  0  0  0  0  0  0  0
   -0.7297  -11.2760   17.9542 N   0  0  0  0  0  0  0  0  0  0  0  0
   -0.2765  -11.7056   19.1766 C   0  0  0  0  0  0  0  0  0  0  0  0
   10.5325   -4.9092   19.7071 C   0  0  0  0  0  0  0  0  0  0  0  0
   10.1705   -4.8739   18.2800 C   0  0  0  0  0  0  0  0  0  0  0  0
    1.0691  -11.3031   19.3278 C   0  0  0  0  0  0  0  0  0  0  0  0
    0.9874  -12.2033   21.5591 C   0  0  0  0  0  0  0  0  0  0  0  0
   13.3206   -4.8853   22.0131 C   0  0  0  0  0  0  0  0  0  0  0  0
    9.3591   -4.6501   15.6939 C   0  0  0  0  0  0  0  0  0  0  0  0
    6.9548   -9.4036   15.8356 O   0  0  0  0  0  0  0  0  0  0  0  0
   12.8704   -4.2345   24.2497 C   0  0  0  0  0  0  0  0  0  0  0  0
    2.6605  -10.0573   17.6760 C   0  0  0  0  0  0  0  0  0  0  0  0
    3.8969   -8.7071   16.1717 C   0  0  0  0  0  0  0  0  0  0  0  0
    8.8763   -5.6948   16.4423 C   0  0  0  0  0  0  0  0  0  0  0  0
   -0.3545  -12.6084   21.3775 C   0  0  0  0  0  0  0  0  0  0  0  0
   -0.9585  -12.3921   20.1720 C   0  0  0  0  0  0  0  0  0  0  0  0
   10.2611   -3.7624   16.2016 C   0  0  0  0  0  0  0  0  0  0  0  0
    1.6580  -11.5987   20.5174 C   0  0  0  0  0  0  0  0  0  0  0  0
   11.7297   -4.5156   20.2429 C   0  0  0  0  0  0  0  0  0  0  0  0
  1 23  4  0
  1 26  4  0
  2 12  4  0
  2 21  4  0
  2 27  1  0
  3 13  1  0
  4  5  4  0
  4 27  4  0
  5  7  4  0
  6  9  4  0
  6 26  4  0
  7 10  1  0
  7 28  4  0
  8  9  4  0
  8 23  4  0
  8 34  1  0
 10 16  1  0
 10 25  2  0
 11 27  4  0
 11 28  4  0
 12 17  4  0
 13 20  4  0
 13 29  4  0
 14 16  1  0
 14 29  1  0
 15 20  4  0
 15 32  4  0
 17 18  4  0
 18 21  4  0
 18 31  4  0
 19 20  1  0
 19 34  1  0
 21 33  4  0
 22 30  4  0
 22 33  4  0
 24 29  4  0
 24 32  4  0
 30 31  4  0
M  END
$$$$

 Created by Python create_sdf_string function

 34 42  0  0  0  0  0  0  0  0999 V2000
   13.7147   -4.7509   23.2816 C   0  0  0  0  0  0  0  0  0  0  0  0
    1.3519  -10.5813   18.0432 C   0  0  0  0  0  0  0  0  0  0  0  0
    8.6555   -6.8812   18.4774 F   0  0  0  0  0  0  0  0  0  0  0  0
    3.8288  -10.3026   18.4025 N   0  0  0  0  0  0  0  0  0  0  0  0
    4.9211   -9.7302   17.9402 C   0  0  0  0  0  0  0  0  0  0  0  0
   11.6037   -3.8073   23.8851 C   0  0  0  0  0  0  0  0  0  0  0  0
    5.1245   -8.9560   16.7680 C   0  0  0  0  0  0  0  0  0  0  0  0
   12.0450   -4.3928   21.7389 C   0  0  0  0  0  0  0  0  0  0  0  0
   11.1147   -3.8469   22.5596 C   0  0  0  0  0  0  0  0  0  0  0  0
    6.2644   -8.5155   16.2419 C   0  0  0  0  0  0  0  0  0  0  0  0
    2.6493   -9.2609   16.5353 C   0  0  0  0  0  0  0  0  0  0  0  0
    0.3452  -10.6028   17.4026 N   0  0  0  0  0  0  0  0  0  0  0  0
    9.2918   -5.8320   17.7641 C   0  0  0  0  0  0  0  0  0  0  0  0
    8.1250   -6.7402   15.7838 C   0  0  0  0  0  0  0  0  0  0  0  0
   10.6481   -3.8483   17.5279 C   0  0  0  0  0  0  0  0  0  0  0  0
    6.8071   -7.3388   16.3550 C   0  0  0  0  0  0  0  0  0  0  0  0
   -0.7112  -11.2987   17.9235 S   0  0  0  0  0  0  0  0  0  0  0  0
   -0.2521  -11.6777   19.1677 C   0  0  0  0  0  0  0  0  0  0  0  0
   10.5203   -4.9719   19.6666 C   0  0  0  0  0  0  0  0  0  0  0  0
   10.1862   -4.8991   18.3255 C   0  0  0  0  0  0  0  0  0  0  0  0
    1.0195  -11.2723   19.2798 C   0  0  0  0  0  0  0  0  0  0  0  0
    0.9961  -12.1210   21.5482 C   0  0  0  0  0  0  0  0  0  0  0  0
   13.3359   -4.9495   22.0584 F   0  0  0  0  0  0  0  0  0  0  0  0
    9.3085   -4.7067   15.6803 C   0  0  0  0  0  0  0  0  0  0  0  0
    7.0057   -9.4885   15.7857 O   0  0  0  0  0  0  0  0  0  0  0  0
   12.8711   -4.2000   24.2714 C   0  0  0  0  0  0  0  0  0  0  0  0
    2.6051  -10.0908   17.6066 C   0  0  0  0  0  0  0  0  0  0  0  0
    3.8541   -8.7439   16.1571 C   0  0  0  0  0  0  0  0  0  0  0  0
    8.8471   -5.7491   16.4188 C   0  0  0  0  0  0  0  0  0  0  0  0
   -0.3333  -12.6334   21.4424 C   0  0  0  0  0  0  0  0  0  0  0  0
   -1.0360  -12.4521   20.1571 C   0  0  0  0  0  0  0  0  0  0  0  0
   10.2314   -3.7285   16.1704 C   0  0  0  0  0  0  0  0  0  0  0  0
    1.6811  -11.5874   20.4320 C   0  0  0  0  0  0  0  0  0  0  0  0
   11.6510   -4.5204   20.2005 C   0  0  0  0  0  0  0  0  0  0  0  0
  1 18  4  0
  1 23  4  0
  1 26  4  0
  2 12  4  0
  2 21  4  0
  2 27  1  0
  3 13  1  0
  3 26  3  0
  4  5  4  0
  4 27  4  0
  5  7  4  0
  6  9  4  0
  6 26  4  0
  7 10  1  0
  7 28  4  0
  8  9  4  0
  8 12  1  0
  8 23  4  0
  8 24  3  0
  8 34  1  0
 10 16  1  0
 10 25  2  0
 11 27  4  0
 11 28  4  0
 12 17  4  0
 13 20  4  0
 13 29  4  0
 14 16  1  0
 14 29  1  0
 15 20  4  0
 17 18  4  0
 17 34  3  0
 18 31  4  0
 19 20  1  0
 19 24  1  0
 19 34  1  0
 21 33  4  0
 22 30  4  0
 22 33  4  0
 24 29  4  0
 24 32  4  0
 30 31  4  0
M  END
$$$$

 Created by Python create_sdf_string function

 34 38  0  0  0  0  0  0  0  0999 V2000
   13.7329   -4.7596   23.3355 C   0  0  0  0  0  0  0  0  0  0  0  0
    1.4163  -10.6213   18.0935 C   0  0  0  0  0  0  0  0  0  0  0  0
    8.6904   -6.8656   18.4554 F   0  0  0  0  0  0  0  0  0  0  0  0
    3.7953  -10.2774   18.3647 N   0  0  0  0  0  0  0  0  0  0  0  0
    4.9051   -9.7583   17.9266 C   0  0  0  0  0  0  0  0  0  0  0  0
   11.6052   -3.7757   23.9240 C   0  0  0  0  0  0  0  0  0  0  0  0
    5.0476   -8.9994   16.7885 C   0  0  0  0  0  0  0  0  0  0  0  0
   12.0781   -4.4361   21.6978 C   0  0  0  0  0  0  0  0  0  0  0  0
   11.1647   -3.8777   22.5984 C   0  0  0  0  0  0  0  0  0  0  0  0
    6.3251   -8.5783   16.2812 C   0  0  0  0  0  0  0  0  0  0  0  0
    2.6872   -9.2578   16.5182 C   0  0  0  0  0  0  0  0  0  0  0  0
    0.3235  -10.6066   17.3225 N   0  0  0  0  0  0  0  0  0  0  0  0
    9.2714   -5.8237   17.7586 C   0  0  0  0  0  0  0  0  0  0  0  0
    8.0469   -6.7673   15.8182 C   0  0  0  0  0  0  0  0  0  0  0  0
   10.6271   -3.8546   17.4776 C   0  0  0  0  0  0  0  0  0  0  0  0
    6.8401   -7.2920   16.3572 C   0  0  0  0  0  0  0  0  0  0  0  0
   -0.7412  -11.3051   17.9551 N   0  0  0  0  0  0  0  0  0  0  0  0
   -0.3032  -11.7204   19.1975 C   0  0  0  0  0  0  0  0  0  0  0  0
   10.5394   -4.9584   19.6675 C   0  0  0  0  0  0  0  0  0  0  0  0
   10.1669   -4.8865   18.2826 C   0  0  0  0  0  0  0  0  0  0  0  0
    1.0389  -11.2898   19.3058 C   0  0  0  0  0  0  0  0  0  0  0  0
    1.0207  -12.1612   21.5489 C   0  0  0  0  0  0  0  0  0  0  0  0
   13.3117   -4.8943   22.0358 C   0  0  0  0  0  0  0  0  0  0  0  0
    9.3379   -4.6934   15.6887 C   0  0  0  0  0  0  0  0  0  0  0  0
    6.9496   -9.4032   15.8061 O   0  0  0  0  0  0  0  0  0  0  0  0
   12.8794   -4.2044   24.2735 C   0  0  0  0  0  0  0  0  0  0  0  0
    2.6220  -10.0535   17.6662 C   0  0  0  0  0  0  0  0  0  0  0  0
    3.8714   -8.7440   16.1329 C   0  0  0  0  0  0  0  0  0  0  0  0
    8.8856   -5.7262   16.4445 C   0  0  0  0  0  0  0  0  0  0  0  0
   -0.3107  -12.6186   21.4127 C   0  0  0  0  0  0  0  0  0  0  0  0
   -0.9801  -12.4140   20.1964 C   0  0  0  0  0  0  0  0  0  0  0  0
   10.2068   -3.7651   16.1882 C   0  0  0  0  0  0  0  0  0  0  0  0
    1.6594  -11.5629   20.4957 C   0  0  0  0  0  0  0  0  0  0  0  0
   11.6932   -4.4819   20.2508 C   0  0  0  0  0  0  0  0  0  0  0  0
  1 23  4  0
  1 26  4  0
  2 12  4  0
  2 21  4  0
  2 27  1  0
  3 13  1  0
  4  5  4  0
  4 27  4  0
  5  7  4  0
  6  9  4  0
  6 26  4  0
  7 10  1  0
  7 28  4  0
  8  9  4  0
  8 23  4  0
  8 34  1  0
 10 16  1  0
 10 25  2  0
 11 27  4  0
 11 28  4  0
 12 17  4  0
 13 20  4  0
 13 29  4  0
 14 16  1  0
 14 29  1  0
 15 20  4  0
 15 32  4  0
 17 18  4  0
 18 21  4  0
 18 31  4  0
 19 20  1  0
 19 34  1  0
 21 33  4  0
 22 30  4  0
 22 33  4  0
 24 29  4  0
 24 32  4  0
 30 31  4  0
M  END
$$$$

 Created by Python create_sdf_string function

 34 46  0  0  0  0  0  0  0  0999 V2000
   13.7018   -4.7431   23.3778 C   0  0  0  0  0  0  0  0  0  0  0  0
    1.4189  -10.6794   18.0532 C   0  0  0  0  0  0  0  0  0  0  0  0
    8.6846   -6.8615   18.3754 F   0  0  0  0  0  0  0  0  0  0  0  0
    3.7924  -10.2786   18.3644 N   0  0  0  0  0  0  0  0  0  0  0  0
    4.9898   -9.7396   17.8927 C   0  0  0  0  0  0  0  0  0  0  0  0
   11.5269   -3.7624   23.9102 C   0  0  0  0  0  0  0  0  0  0  0  0
    4.9847   -8.9833   16.7373 C   0  0  0  0  0  0  0  0  0  0  0  0
   12.0657   -4.3841   21.6887 C   0  0  0  0  0  0  0  0  0  0  0  0
   11.2086   -3.7686   22.6270 C   0  0  0  0  0  0  0  0  0  0  0  0
    6.3320   -8.5145   16.3510 C   0  0  0  0  0  0  0  0  0  0  0  0
    2.6269   -9.2500   16.6009 C   0  0  0  0  0  0  0  0  0  0  0  0
    0.2515  -10.6077   17.3474 N   0  0  0  0  0  0  0  0  0  0  0  0
    9.3463   -5.7986   17.7887 C   0  0  0  0  0  0  0  0  0  0  0  0
    8.0748   -6.7354   15.8386 C   0  0  0  0  0  0  0  0  0  0  0  0
   10.6481   -3.8922   17.4150 C   0  0  0  0  0  0  0  0  0  0  0  0
    6.8402   -7.2831   16.3815 C   0  0  0  0  0  0  0  0  0  0  0  0
   -0.7600  -11.3689   17.8762 O   0  0  0  0  0  0  0  0  0  0  0  0
   -0.2838  -11.7296   19.1798 C   0  0  0  0  0  0  0  0  0  0  0  0
   10.5468   -5.0222   19.6647 C   0  0  0  0  0  0  0  0  0  0  0  0
   10.1776   -4.8479   18.3218 C   0  0  0  0  0  0  0  0  0  0  0  0
    1.0744  -11.3447   19.2691 C   0  0  0  0  0  0  0  0  0  0  0  0
    1.0192  -12.1837   21.5859 C   0  0  0  0  0  0  0  0  0  0  0  0
   13.2860   -4.9650   22.0467 C   0  0  0  0  0  0  0  0  0  0  0  0
    9.2825   -4.7574   15.7376 C   0  0  0  0  0  0  0  0  0  0  0  0
    6.9337   -9.3648   15.8527 O   0  0  0  0  0  0  0  0  0  0  0  0
   12.8733   -4.2256   24.3085 C   0  0  0  0  0  0  0  0  0  0  0  0
    2.5942  -10.1126   17.6571 C   0  0  0  0  0  0  0  0  0  0  0  0
    3.7623   -8.7122   16.1508 C   0  0  0  0  0  0  0  0  0  0  0  0
    8.8942   -5.7095   16.4572 C   0  0  0  0  0  0  0  0  0  0  0  0
   -0.2426  -12.6870   21.4124 C   0  0  0  0  0  0  0  0  0  0  0  0
   -1.0361  -12.4663   20.2016 C   0  0  0  0  0  0  0  0  0  0  0  0
   10.1583   -3.7147   16.1468 C   0  0  0  0  0  0  0  0  0  0  0  0
    1.6215  -11.5552   20.5053 C   0  0  0  0  0  0  0  0  0  0  0  0
   11.6805   -4.5130   20.2210 C   0  0  0  0  0  0  0  0  0  0  0  0
  1 23  4  0
  1 26  4  0
  2 12  4  0
  2 21  4  0
  2 27  1  0
  3 13  1  0
  4  5  4  0
  4 17  1  0
  4 27  4  0
  5  7  4  0
  5  9  4  0
  5 31  3  0
  6  9  4  0
  6 26  4  0
  7 10  1  0
  7 28  4  0
  8  9  4  0
  8 23  4  0
  8 28  3  0
  8 34  1  0
 10 16  1  0
 10 25  4  0
 11 27  4  0
 11 28  4  0
 11 30  1  0
 12 17  4  0
 12 20  4  0
 13 20  4  0
 13 29  4  0
 14 16  1  0
 14 29  1  0
 15 20  4  0
 15 32  4  0
 17 18  4  0
 18 21  4  0
 18 31  4  0
 19 20  1  0
 19 34  1  0
 20 30  3  0
 21 33  4  0
 22 30  4  0
 22 33  4  0
 24 29  4  0
 24 32  4  0
 28 32  2  0
 30 31  4  0
M  END
$$$$

 Created by Python create_sdf_string function

 34 38  0  0  0  0  0  0  0  0999 V2000
   13.7194   -4.7778   23.3787 C   0  0  0  0  0  0  0  0  0  0  0  0
    1.4111  -10.6544   18.0947 C   0  0  0  0  0  0  0  0  0  0  0  0
    8.7210   -6.8526   18.3854 F   0  0  0  0  0  0  0  0  0  0  0  0
    3.8103  -10.2955   18.3472 N   0  0  0  0  0  0  0  0  0  0  0  0
    4.9054   -9.7739   17.8999 C   0  0  0  0  0  0  0  0  0  0  0  0
   11.5850   -3.7431   23.9499 C   0  0  0  0  0  0  0  0  0  0  0  0
    5.0001   -8.9903   16.7867 C   0  0  0  0  0  0  0  0  0  0  0  0
   12.0770   -4.4205   21.6956 C   0  0  0  0  0  0  0  0  0  0  0  0
   11.2183   -3.8125   22.6050 C   0  0  0  0  0  0  0  0  0  0  0  0
    6.2849   -8.5332   16.3169 C   0  0  0  0  0  0  0  0  0  0  0  0
    2.6500   -9.2447   16.5520 C   0  0  0  0  0  0  0  0  0  0  0  0
    0.2993  -10.6606   17.3432 N   0  0  0  0  0  0  0  0  0  0  0  0
    9.3009   -5.8036   17.7519 C   0  0  0  0  0  0  0  0  0  0  0  0
    8.0420   -6.7331   15.8656 C   0  0  0  0  0  0  0  0  0  0  0  0
   10.6243   -3.8491   17.4356 C   0  0  0  0  0  0  0  0  0  0  0  0
    6.8439   -7.2666   16.3923 C   0  0  0  0  0  0  0  0  0  0  0  0
   -0.7208  -11.3602   17.9431 O   0  0  0  0  0  0  0  0  0  0  0  0
   -0.2802  -11.7568   19.1979 C   0  0  0  0  0  0  0  0  0  0  0  0
   10.5911   -4.9654   19.6576 C   0  0  0  0  0  0  0  0  0  0  0  0
   10.1999   -4.8576   18.2624 C   0  0  0  0  0  0  0  0  0  0  0  0
    1.0477  -11.3223   19.3220 C   0  0  0  0  0  0  0  0  0  0  0  0
    1.0410  -12.1943   21.5694 C   0  0  0  0  0  0  0  0  0  0  0  0
   13.3022   -4.9205   22.0644 C   0  0  0  0  0  0  0  0  0  0  0  0
    9.3016   -4.6959   15.6960 C   0  0  0  0  0  0  0  0  0  0  0  0
    6.9199   -9.3409   15.8607 O   0  0  0  0  0  0  0  0  0  0  0  0
   12.8579   -4.2130   24.3257 C   0  0  0  0  0  0  0  0  0  0  0  0
    2.6270  -10.0662   17.6707 C   0  0  0  0  0  0  0  0  0  0  0  0
    3.8092   -8.7193   16.1520 C   0  0  0  0  0  0  0  0  0  0  0  0
    8.8973   -5.7045   16.4610 C   0  0  0  0  0  0  0  0  0  0  0  0
   -0.2727  -12.6792   21.4205 C   0  0  0  0  0  0  0  0  0  0  0  0
   -0.9702  -12.4513   20.2135 C   0  0  0  0  0  0  0  0  0  0  0  0
   10.1804   -3.7493   16.1682 C   0  0  0  0  0  0  0  0  0  0  0  0
    1.6614  -11.5752   20.5170 C   0  0  0  0  0  0  0  0  0  0  0  0
   11.7059   -4.4767   20.2546 C   0  0  0  0  0  0  0  0  0  0  0  0
  1 23  4  0
  1 26  4  0
  2 12  4  0
  2 21  4  0
  2 27  1  0
  3 13  1  0
  4  5  4  0
  4 27  4  0
  5  7  4  0
  6  9  4  0
  6 26  4  0
  7 10  1  0
  7 28  4  0
  8  9  4  0
  8 23  4  0
  8 34  1  0
 10 16  1  0
 10 25  2  0
 11 27  4  0
 11 28  4  0
 12 17  4  0
 13 20  4  0
 13 29  4  0
 14 16  1  0
 14 29  1  0
 15 20  4  0
 15 32  4  0
 17 18  4  0
 18 21  4  0
 18 31  4  0
 19 20  1  0
 19 34  1  0
 21 33  4  0
 22 30  4  0
 22 33  4  0
 24 29  4  0
 24 32  4  0
 30 31  4  0
M  END
$$$$

 Created by Python create_sdf_string function

 34 45  0  0  0  0  0  0  0  0999 V2000
   13.6754   -4.7817   23.3274 C   0  0  0  0  0  0  0  0  0  0  0  0
    1.3659  -10.6070   18.0721 C   0  0  0  0  0  0  0  0  0  0  0  0
    8.7400   -6.8460   18.4106 F   0  0  0  0  0  0  0  0  0  0  0  0
    3.8351  -10.2876   18.4094 N   0  0  0  0  0  0  0  0  0  0  0  0
    4.9293   -9.7808   17.9270 C   0  0  0  0  0  0  0  0  0  0  0  0
   11.5894   -3.7109   23.8968 C   0  0  0  0  0  0  0  0  0  0  0  0
    5.0405   -9.0032   16.8560 C   0  0  0  0  0  0  0  0  0  0  0  0
   12.0216   -4.4494   21.6677 C   0  0  0  0  0  0  0  0  0  0  0  0
   11.1562   -3.8495   22.6106 C   0  0  0  0  0  0  0  0  0  0  0  0
    6.3041   -8.5515   16.3202 C   0  0  0  0  0  0  0  0  0  0  0  0
    2.6465   -9.3031   16.6205 C   0  0  0  0  0  0  0  0  0  0  0  0
    0.2852  -10.6768   17.3031 N   0  0  0  0  0  0  0  0  0  0  0  0
    9.2928   -5.7889   17.7399 C   0  0  0  0  0  0  0  0  0  0  0  0
    8.0322   -6.7297   15.9266 C   0  0  0  0  0  0  0  0  0  0  0  0
   10.5914   -3.8645   17.4188 C   0  0  0  0  0  0  0  0  0  0  0  0
    6.8090   -7.2646   16.4102 C   0  0  0  0  0  0  0  0  0  0  0  0
   -0.7680  -11.3200   17.9074 O   0  0  0  0  0  0  0  0  0  0  0  0
   -0.2997  -11.7404   19.2006 C   0  0  0  0  0  0  0  0  0  0  0  0
   10.6801   -4.9605   19.6909 C   0  0  0  0  0  0  0  0  0  0  0  0
   10.1923   -4.8194   18.2306 C   0  0  0  0  0  0  0  0  0  0  0  0
    0.9958  -11.2856   19.3013 C   0  0  0  0  0  0  0  0  0  0  0  0
    1.0084  -12.2156   21.6503 C   0  0  0  0  0  0  0  0  0  0  0  0
   13.2887   -4.9025   22.1309 C   0  0  0  0  0  0  0  0  0  0  0  0
    9.3207   -4.7127   15.6614 C   0  0  0  0  0  0  0  0  0  0  0  0
    6.9352   -9.3120   15.8492 O   0  0  0  0  0  0  0  0  0  0  0  0
   12.8756   -4.2784   24.3043 C   0  0  0  0  0  0  0  0  0  0  0  0
    2.5655  -10.0442   17.6945 C   0  0  0  0  0  0  0  0  0  0  0  0
    3.8543   -8.7558   16.1200 C   0  0  0  0  0  0  0  0  0  0  0  0
    8.8849   -5.7659   16.4839 C   0  0  0  0  0  0  0  0  0  0  0  0
   -0.2162  -12.7293   21.3978 C   0  0  0  0  0  0  0  0  0  0  0  0
   -0.9497  -12.4675   20.1982 C   0  0  0  0  0  0  0  0  0  0  0  0
   10.1814   -3.7813   16.1840 C   0  0  0  0  0  0  0  0  0  0  0  0
    1.6455  -11.5580   20.4934 C   0  0  0  0  0  0  0  0  0  0  0  0
   11.7248   -4.4815   20.1774 C   0  0  0  0  0  0  0  0  0  0  0  0
  1  7  4  0
  1 23  4  0
  1 26  4  0
  2 12  4  0
  2 21  4  0
  2 27  1  0
  3 13  1  0
  4  5  4  0
  4 27  4  0
  5  7  4  0
  6  9  4  0
  6 26  4  0
  7 10  1  0
  7 28  4  0
  8  9  4  0
  8 23  4  0
  8 34  1  0
  9 18  1  0
 10 16  1  0
 10 18  2  0
 10 25  2  0
 11 27  4  0
 11 28  4  0
 11 33  4  0
 12 17  4  0
 13 20  4  0
 13 29  4  0
 14 16  1  0
 14 29  1  0
 15 20  4  0
 15 32  4  0
 17 18  4  0
 18 21  4  0
 18 31  4  0
 19 20  1  0
 19 34  1  0
 20 29  1  0
 21 33  4  0
 22 30  4  0
 22 33  4  0
 24 27  2  0
 24 29  4  0
 24 31  3  0
 24 32  4  0
 30 31  4  0
M  END
$$$$

 Created by Python create_sdf_string function

 34 38  0  0  0  0  0  0  0  0999 V2000
   13.6958   -4.7977   23.3726 C   0  0  0  0  0  0  0  0  0  0  0  0
    1.3916  -10.6395   18.1133 C   0  0  0  0  0  0  0  0  0  0  0  0
    8.7563   -6.8478   18.4460 F   0  0  0  0  0  0  0  0  0  0  0  0
    3.7889  -10.2829   18.3951 N   0  0  0  0  0  0  0  0  0  0  0  0
    4.9039   -9.7817   17.9428 C   0  0  0  0  0  0  0  0  0  0  0  0
   11.6043   -3.7374   23.9401 C   0  0  0  0  0  0  0  0  0  0  0  0
    5.0331   -9.0129   16.8237 C   0  0  0  0  0  0  0  0  0  0  0  0
   12.0718   -4.4354   21.6802 C   0  0  0  0  0  0  0  0  0  0  0  0
   11.1966   -3.8612   22.6056 C   0  0  0  0  0  0  0  0  0  0  0  0
    6.2993   -8.5611   16.3298 C   0  0  0  0  0  0  0  0  0  0  0  0
    2.6781   -9.2607   16.5520 C   0  0  0  0  0  0  0  0  0  0  0  0
    0.3043  -10.6723   17.3371 N   0  0  0  0  0  0  0  0  0  0  0  0
    9.2969   -5.7938   17.7570 C   0  0  0  0  0  0  0  0  0  0  0  0
    8.0013   -6.7359   15.9247 C   0  0  0  0  0  0  0  0  0  0  0  0
   10.6117   -3.8467   17.4318 C   0  0  0  0  0  0  0  0  0  0  0  0
    6.8164   -7.2594   16.4384 C   0  0  0  0  0  0  0  0  0  0  0  0
   -0.7325  -11.3367   17.9527 O   0  0  0  0  0  0  0  0  0  0  0  0
   -0.2930  -11.7424   19.2018 C   0  0  0  0  0  0  0  0  0  0  0  0
   10.6249   -4.9476   19.6509 C   0  0  0  0  0  0  0  0  0  0  0  0
   10.1961   -4.8525   18.2495 C   0  0  0  0  0  0  0  0  0  0  0  0
    1.0264  -11.2986   19.3439 C   0  0  0  0  0  0  0  0  0  0  0  0
    1.0306  -12.2162   21.5776 C   0  0  0  0  0  0  0  0  0  0  0  0
   13.3013   -4.9078   22.0659 C   0  0  0  0  0  0  0  0  0  0  0  0
    9.3178   -4.7098   15.6706 C   0  0  0  0  0  0  0  0  0  0  0  0
    6.9064   -9.3106   15.8565 O   0  0  0  0  0  0  0  0  0  0  0  0
   12.8549   -4.2350   24.3189 C   0  0  0  0  0  0  0  0  0  0  0  0
    2.6216  -10.0589   17.6907 C   0  0  0  0  0  0  0  0  0  0  0  0
    3.8706   -8.7524   16.1547 C   0  0  0  0  0  0  0  0  0  0  0  0
    8.8808   -5.7131   16.4643 C   0  0  0  0  0  0  0  0  0  0  0  0
   -0.2787  -12.7168   21.3864 C   0  0  0  0  0  0  0  0  0  0  0  0
   -0.9466  -12.4636   20.1995 C   0  0  0  0  0  0  0  0  0  0  0  0
   10.1835   -3.7704   16.1499 C   0  0  0  0  0  0  0  0  0  0  0  0
    1.6531  -11.5544   20.5426 C   0  0  0  0  0  0  0  0  0  0  0  0
   11.7592   -4.4394   20.2323 C   0  0  0  0  0  0  0  0  0  0  0  0
  1 23  4  0
  1 26  4  0
  2 12  4  0
  2 21  4  0
  2 27  1  0
  3 13  1  0
  4  5  4  0
  4 27  4  0
  5  7  4  0
  6  9  4  0
  6 26  4  0
  7 10  1  0
  7 28  4  0
  8  9  4  0
  8 23  4  0
  8 34  1  0
 10 16  1  0
 10 25  2  0
 11 27  4  0
 11 28  4  0
 12 17  4  0
 13 20  4  0
 13 29  4  0
 14 16  1  0
 14 29  1  0
 15 20  4  0
 15 32  4  0
 17 18  4  0
 18 21  4  0
 18 31  4  0
 19 20  1  0
 19 34  1  0
 21 33  4  0
 22 30  4  0
 22 33  4  0
 24 29  4  0
 24 32  4  0
 30 31  4  0
M  END
$$$$

 Created by Python create_sdf_string function

 34 40  0  0  0  0  0  0  0  0999 V2000
   13.6901   -4.8400   23.4179 C   0  0  0  0  0  0  0  0  0  0  0  0
    1.4064  -10.6033   18.1298 C   0  0  0  0  0  0  0  0  0  0  0  0
    8.7293   -6.8544   18.4120 F   0  0  0  0  0  0  0  0  0  0  0  0
    3.7939  -10.2682   18.3337 N   0  0  0  0  0  0  0  0  0  0  0  0
    4.9144   -9.7866   17.9627 C   0  0  0  0  0  0  0  0  0  0  0  0
   11.6593   -3.7617   23.9224 C   0  0  0  0  0  0  0  0  0  0  0  0
    5.0861   -8.9942   16.8614 C   0  0  0  0  0  0  0  0  0  0  0  0
   12.0674   -4.4998   21.6981 C   0  0  0  0  0  0  0  0  0  0  0  0
   11.1386   -3.8418   22.6109 C   0  0  0  0  0  0  0  0  0  0  0  0
    6.3120   -8.5857   16.3529 C   0  0  0  0  0  0  0  0  0  0  0  0
    2.7397   -9.2994   16.5507 C   0  0  0  0  0  0  0  0  0  0  0  0
    0.2822  -10.6610   17.3463 N   0  0  0  0  0  0  0  0  0  0  0  0
    9.3063   -5.8390   17.7017 C   0  0  0  0  0  0  0  0  0  0  0  0
    7.9849   -6.6950   15.9687 C   0  0  0  0  0  0  0  0  0  0  0  0
   10.6380   -3.8593   17.4101 C   0  0  0  0  0  0  0  0  0  0  0  0
    6.8199   -7.2370   16.4396 C   0  0  0  0  0  0  0  0  0  0  0  0
   -0.6821  -11.3090   17.8799 O   0  0  0  0  0  0  0  0  0  0  0  0
   -0.3030  -11.7063   19.1993 C   0  0  0  0  0  0  0  0  0  0  0  0
   10.6696   -4.9206   19.6726 C   0  0  0  0  0  0  0  0  0  0  0  0
   10.2210   -4.8564   18.2713 C   0  0  0  0  0  0  0  0  0  0  0  0
    1.0717  -11.3092   19.3398 C   0  0  0  0  0  0  0  0  0  0  0  0
    1.0467  -12.2232   21.5871 C   0  0  0  0  0  0  0  0  0  0  0  0
   13.2844   -4.8886   22.0713 C   0  0  0  0  0  0  0  0  0  0  0  0
    9.3065   -4.7086   15.6750 C   0  0  0  0  0  0  0  0  0  0  0  0
    6.8664   -9.2978   15.8797 O   0  0  0  0  0  0  0  0  0  0  0  0
   12.8793   -4.2319   24.3169 C   0  0  0  0  0  0  0  0  0  0  0  0
    2.5884  -10.0858   17.6705 C   0  0  0  0  0  0  0  0  0  0  0  0
    3.8607   -8.7260   16.1609 C   0  0  0  0  0  0  0  0  0  0  0  0
    8.8657   -5.7346   16.4902 C   0  0  0  0  0  0  0  0  0  0  0  0
   -0.2410  -12.7290   21.3957 C   0  0  0  0  0  0  0  0  0  0  0  0
   -0.9219  -12.4336   20.1983 C   0  0  0  0  0  0  0  0  0  0  0  0
    1.6312  -11.5507   20.5746 C   0  0  0  0  0  0  0  0  0  0  0  0
   11.7281   -4.4701   20.1993 C   0  0  0  0  0  0  0  0  0  0  0  0
   10.1641   -3.7717   16.1408 He  0  0  0  0  0  0  0  0  0  0  0  0
  1 15  4  0
  1 23  4  0
  1 26  4  0
  2 12  4  0
  2 21  4  0
  2 27  1  0
  3  7  2  0
  3 13  1  0
  4  5  4  0
  4 27  4  0
  5  7  4  0
  6  9  4  0
  6 26  4  0
  7 10  1  0
  7 28  4  0
  8  9  4  0
  8 23  4  0
  8 33  1  0
 10 16  1  0
 10 25  2  0
 11 27  4  0
 11 28  4  0
 12 17  4  0
 13 20  4  0
 13 29  4  0
 14 16  1  0
 14 29  1  0
 15 20  4  0
 17 18  4  0
 18 21  4  0
 18 31  4  0
 19 20  1  0
 19 33  1  0
 21 32  4  0
 22 30  4  0
 22 31  2  0
 22 32  4  0
 24 29  4  0
 26 27  1  0
 30 31  4  0
M  END
$$$$

 Created by Python create_sdf_string function

 34 38  0  0  0  0  0  0  0  0999 V2000
   13.7205   -4.8356   23.3989 C   0  0  0  0  0  0  0  0  0  0  0  0
    1.4195  -10.6350   18.1231 C   0  0  0  0  0  0  0  0  0  0  0  0
    8.7624   -6.8541   18.4271 F   0  0  0  0  0  0  0  0  0  0  0  0
    3.7941  -10.2866   18.3798 N   0  0  0  0  0  0  0  0  0  0  0  0
    4.9037   -9.7802   17.9431 C   0  0  0  0  0  0  0  0  0  0  0  0
   11.6354   -3.7529   23.9458 C   0  0  0  0  0  0  0  0  0  0  0  0
    5.0370   -9.0127   16.8442 C   0  0  0  0  0  0  0  0  0  0  0  0
   12.0780   -4.4512   21.6908 C   0  0  0  0  0  0  0  0  0  0  0  0
   11.1981   -3.8710   22.6188 C   0  0  0  0  0  0  0  0  0  0  0  0
    6.2911   -8.5602   16.3588 C   0  0  0  0  0  0  0  0  0  0  0  0
    2.7173   -9.2754   16.5376 C   0  0  0  0  0  0  0  0  0  0  0  0
    0.3339  -10.6530   17.3497 N   0  0  0  0  0  0  0  0  0  0  0  0
    9.3081   -5.8086   17.7498 C   0  0  0  0  0  0  0  0  0  0  0  0
    7.9648   -6.7078   15.9346 C   0  0  0  0  0  0  0  0  0  0  0  0
   10.6333   -3.8494   17.4039 C   0  0  0  0  0  0  0  0  0  0  0  0
    6.8250   -7.2599   16.4602 C   0  0  0  0  0  0  0  0  0  0  0  0
   -0.6815  -11.3221   17.9503 O   0  0  0  0  0  0  0  0  0  0  0  0
   -0.2506  -11.7233   19.2172 C   0  0  0  0  0  0  0  0  0  0  0  0
   10.6421   -4.9188   19.6317 C   0  0  0  0  0  0  0  0  0  0  0  0
   10.2206   -4.8559   18.2414 C   0  0  0  0  0  0  0  0  0  0  0  0
    1.0523  -11.2891   19.3637 C   0  0  0  0  0  0  0  0  0  0  0  0
    1.0477  -12.2315   21.5855 C   0  0  0  0  0  0  0  0  0  0  0  0
   13.3055   -4.9123   22.0876 C   0  0  0  0  0  0  0  0  0  0  0  0
    9.2969   -4.7057   15.6702 C   0  0  0  0  0  0  0  0  0  0  0  0
    6.8860   -9.3088   15.8749 O   0  0  0  0  0  0  0  0  0  0  0  0
   12.8776   -4.2358   24.3221 C   0  0  0  0  0  0  0  0  0  0  0  0
    2.6319  -10.0645   17.6805 C   0  0  0  0  0  0  0  0  0  0  0  0
    3.8864   -8.7395   16.1602 C   0  0  0  0  0  0  0  0  0  0  0  0
    8.8730   -5.7028   16.4681 C   0  0  0  0  0  0  0  0  0  0  0  0
   -0.2609  -12.7145   21.3964 C   0  0  0  0  0  0  0  0  0  0  0  0
   -0.9249  -12.4424   20.2148 C   0  0  0  0  0  0  0  0  0  0  0  0
   10.1779   -3.7756   16.1381 C   0  0  0  0  0  0  0  0  0  0  0  0
    1.6624  -11.5565   20.5659 C   0  0  0  0  0  0  0  0  0  0  0  0
   11.7477   -4.4577   20.2418 C   0  0  0  0  0  0  0  0  0  0  0  0
  1 23  4  0
  1 26  4  0
  2 12  4  0
  2 21  4  0
  2 27  1  0
  3 13  1  0
  4  5  4  0
  4 27  4  0
  5  7  4  0
  6  9  4  0
  6 26  4  0
  7 10  1  0
  7 28  4  0
  8  9  4  0
  8 23  4  0
  8 34  1  0
 10 16  1  0
 10 25  2  0
 11 27  4  0
 11 28  4  0
 12 17  4  0
 13 20  4  0
 13 29  4  0
 14 16  1  0
 14 29  1  0
 15 20  4  0
 15 32  4  0
 17 18  4  0
 18 21  4  0
 18 31  4  0
 19 20  1  0
 19 34  1  0
 21 33  4  0
 22 30  4  0
 22 33  4  0
 24 29  4  0
 24 32  4  0
 30 31  4  0
M  END
$$$$

 Created by Python create_sdf_string function

 34 40  0  0  0  0  0  0  0  0999 V2000
   13.7190   -4.9044   23.3961 C   0  0  0  0  0  0  0  0  0  0  0  0
    1.4615  -10.6279   18.1351 C   0  0  0  0  0  0  0  0  0  0  0  0
    8.7930   -6.8887   18.4422 F   0  0  0  0  0  0  0  0  0  0  0  0
    3.8069  -10.3040   18.3600 N   0  0  0  0  0  0  0  0  0  0  0  0
    4.9038   -9.7797   17.9455 C   0  0  0  0  0  0  0  0  0  0  0  0
   11.6369   -3.7347   23.9359 C   0  0  0  0  0  0  0  0  0  0  0  0
    5.0643   -9.0005   16.8450 C   0  0  0  0  0  0  0  0  0  0  0  0
   12.0828   -4.4413   21.7472 C   0  0  0  0  0  0  0  0  0  0  0  0
   11.1919   -3.8610   22.6157 C   0  0  0  0  0  0  0  0  0  0  0  0
    6.2713   -8.5518   16.3853 C   0  0  0  0  0  0  0  0  0  0  0  0
    2.7096   -9.2511   16.5072 C   0  0  0  0  0  0  0  0  0  0  0  0
    0.3262  -10.6414   17.3664 N   0  0  0  0  0  0  0  0  0  0  0  0
    9.3202   -5.8036   17.7811 C   0  0  0  0  0  0  0  0  0  0  0  0
    7.9228   -6.7264   15.9337 C   0  0  0  0  0  0  0  0  0  0  0  0
   10.6352   -3.8368   17.4028 C   0  0  0  0  0  0  0  0  0  0  0  0
    6.8258   -7.2086   16.4126 C   0  0  0  0  0  0  0  0  0  0  0  0
   -0.6763  -11.3274   17.9647 O   0  0  0  0  0  0  0  0  0  0  0  0
   -0.2669  -11.7384   19.2366 C   0  0  0  0  0  0  0  0  0  0  0  0
   10.6532   -4.9105   19.6321 C   0  0  0  0  0  0  0  0  0  0  0  0
   10.1543   -4.9138   18.2110 C   0  0  0  0  0  0  0  0  0  0  0  0
    1.0840  -11.2850   19.3668 C   0  0  0  0  0  0  0  0  0  0  0  0
    1.0581  -12.2368   21.5687 C   0  0  0  0  0  0  0  0  0  0  0  0
   13.3097   -4.9543   22.1047 C   0  0  0  0  0  0  0  0  0  0  0  0
    9.2753   -4.7158   15.6895 C   0  0  0  0  0  0  0  0  0  0  0  0
    6.8725   -9.3129   15.8863 O   0  0  0  0  0  0  0  0  0  0  0  0
   12.8533   -4.2266   24.3240 C   0  0  0  0  0  0  0  0  0  0  0  0
    2.6149  -10.0708   17.6657 C   0  0  0  0  0  0  0  0  0  0  0  0
    3.9000   -8.7594   16.1443 C   0  0  0  0  0  0  0  0  0  0  0  0
    8.9198   -5.7310   16.4829 C   0  0  0  0  0  0  0  0  0  0  0  0
   -0.2435  -12.7436   21.4393 C   0  0  0  0  0  0  0  0  0  0  0  0
   -0.9213  -12.4476   20.2217 C   0  0  0  0  0  0  0  0  0  0  0  0
   10.2074   -3.7761   16.1514 C   0  0  0  0  0  0  0  0  0  0  0  0
    1.6301  -11.4925   20.5674 C   0  0  0  0  0  0  0  0  0  0  0  0
   11.7771   -4.4574   20.2557 He  0  0  0  0  0  0  0  0  0  0  0  0
  1 23  4  0
  1 26  4  0
  2 12  4  0
  2 19  2  0
  2 21  4  0
  2 27  1  0
  3 13  1  0
  4  5  4  0
  4 27  4  0
  5  7  4  0
  5 17  2  0
  6  9  4  0
  6 26  4  0
  7 10  1  0
  7 28  4  0
  8  9  4  0
  8 23  4  0
 10 16  1  0
 10 24  4  0
 10 25  2  0
 11 27  4  0
 11 28  4  0
 12 17  4  0
 13 20  4  0
 13 29  4  0
 14 16  1  0
 14 19  3  0
 14 29  1  0
 15 20  4  0
 15 32  4  0
 17 18  4  0
 18 21  4  0
 18 31  4  0
 19 20  1  0
 21 33  4  0
 22 30  4  0
 22 33  4  0
 24 29  4  0
 24 32  4  0
 30 31  4  0
M  END
$$$$

 Created by Python create_sdf_string function

 34 38  0  0  0  0  0  0  0  0999 V2000
   13.7276   -4.8849   23.4156 C   0  0  0  0  0  0  0  0  0  0  0  0
    1.4428  -10.6276   18.1313 C   0  0  0  0  0  0  0  0  0  0  0  0
    8.8021   -6.8633   18.4345 F   0  0  0  0  0  0  0  0  0  0  0  0
    3.7975  -10.2962   18.3803 N   0  0  0  0  0  0  0  0  0  0  0  0
    4.8965   -9.7835   17.9411 C   0  0  0  0  0  0  0  0  0  0  0  0
   11.6377   -3.7381   23.9532 C   0  0  0  0  0  0  0  0  0  0  0  0
    5.0300   -9.0149   16.8378 C   0  0  0  0  0  0  0  0  0  0  0  0
   12.1049   -4.4462   21.7205 C   0  0  0  0  0  0  0  0  0  0  0  0
   11.2313   -3.8610   22.6287 C   0  0  0  0  0  0  0  0  0  0  0  0
    6.2844   -8.5443   16.3603 C   0  0  0  0  0  0  0  0  0  0  0  0
    2.7134   -9.2638   16.5157 C   0  0  0  0  0  0  0  0  0  0  0  0
    0.3514  -10.6568   17.3813 N   0  0  0  0  0  0  0  0  0  0  0  0
    9.3158   -5.7996   17.7529 C   0  0  0  0  0  0  0  0  0  0  0  0
    7.9776   -6.7101   15.9013 C   0  0  0  0  0  0  0  0  0  0  0  0
   10.6435   -3.8454   17.4189 C   0  0  0  0  0  0  0  0  0  0  0  0
    6.8070   -7.2475   16.4695 C   0  0  0  0  0  0  0  0  0  0  0  0
   -0.6583  -11.3320   18.0005 O   0  0  0  0  0  0  0  0  0  0  0  0
   -0.2400  -11.7358   19.2487 C   0  0  0  0  0  0  0  0  0  0  0  0
   10.6685   -4.8959   19.6212 C   0  0  0  0  0  0  0  0  0  0  0  0
   10.2164   -4.8500   18.2426 C   0  0  0  0  0  0  0  0  0  0  0  0
    1.0666  -11.2843   19.3855 C   0  0  0  0  0  0  0  0  0  0  0  0
    1.0603  -12.2322   21.5961 C   0  0  0  0  0  0  0  0  0  0  0  0
   13.3186   -4.9566   22.0878 C   0  0  0  0  0  0  0  0  0  0  0  0
    9.3105   -4.6982   15.6891 C   0  0  0  0  0  0  0  0  0  0  0  0
    6.8918   -9.3026   15.8856 O   0  0  0  0  0  0  0  0  0  0  0  0
   12.8828   -4.2444   24.3462 C   0  0  0  0  0  0  0  0  0  0  0  0
    2.6549  -10.0566   17.6688 C   0  0  0  0  0  0  0  0  0  0  0  0
    3.8929   -8.7523   16.1462 C   0  0  0  0  0  0  0  0  0  0  0  0
    8.8812   -5.7034   16.4674 C   0  0  0  0  0  0  0  0  0  0  0  0
   -0.2512  -12.7262   21.4251 C   0  0  0  0  0  0  0  0  0  0  0  0
   -0.9219  -12.4563   20.2324 C   0  0  0  0  0  0  0  0  0  0  0  0
   10.2002   -3.7700   16.1462 C   0  0  0  0  0  0  0  0  0  0  0  0
    1.6682  -11.5325   20.5875 C   0  0  0  0  0  0  0  0  0  0  0  0
   11.7599   -4.4597   20.3009 C   0  0  0  0  0  0  0  0  0  0  0  0
  1 23  4  0
  1 26  4  0
  2 12  4  0
  2 21  4  0
  2 27  1  0
  3 13  1  0
  4  5  4  0
  4 27  4  0
  5  7  4  0
  6  9  4  0
  6 26  4  0
  7 10  1  0
  7 28  4  0
  8  9  4  0
  8 23  4  0
  8 34  1  0
 10 16  1  0
 10 25  2  0
 11 27  4  0
 11 28  4  0
 12 17  4  0
 13 20  4  0
 13 29  4  0
 14 16  1  0
 14 29  1  0
 15 20  4  0
 15 32  4  0
 17 18  4  0
 18 21  4  0
 18 31  4  0
 19 20  1  0
 19 34  1  0
 21 33  4  0
 22 30  4  0
 22 33  4  0
 24 29  4  0
 24 32  4  0
 30 31  4  0
M  END
$$$$

 Created by Python create_sdf_string function

 34 41  0  0  0  0  0  0  0  0999 V2000
   13.7033   -4.8834   23.4091 C   0  0  0  0  0  0  0  0  0  0  0  0
    1.4222  -10.6417   18.0942 C   0  0  0  0  0  0  0  0  0  0  0  0
    8.7903   -6.8502   18.4005 F   0  0  0  0  0  0  0  0  0  0  0  0
    3.8331  -10.2742   18.4027 N   0  0  0  0  0  0  0  0  0  0  0  0
    4.9307   -9.7673   17.9456 C   0  0  0  0  0  0  0  0  0  0  0  0
   11.6609   -3.7113   23.9791 C   0  0  0  0  0  0  0  0  0  0  0  0
    5.0142   -9.0136   16.8687 C   0  0  0  0  0  0  0  0  0  0  0  0
   12.0808   -4.4368   21.7204 C   0  0  0  0  0  0  0  0  0  0  0  0
   11.2292   -3.8621   22.5856 C   0  0  0  0  0  0  0  0  0  0  0  0
    6.2483   -8.5427   16.3157 C   0  0  0  0  0  0  0  0  0  0  0  0
    2.6891   -9.2728   16.4878 C   0  0  0  0  0  0  0  0  0  0  0  0
    0.3663  -10.6412   17.3955 N   0  0  0  0  0  0  0  0  0  0  0  0
    9.3078   -5.7978   17.7584 C   0  0  0  0  0  0  0  0  0  0  0  0
    7.9562   -6.6703   15.9196 C   0  0  0  0  0  0  0  0  0  0  0  0
   10.6347   -3.8395   17.4001 C   0  0  0  0  0  0  0  0  0  0  0  0
    6.8020   -7.2663   16.4603 C   0  0  0  0  0  0  0  0  0  0  0  0
   -0.6727  -11.3454   18.0147 O   0  0  0  0  0  0  0  0  0  0  0  0
   -0.2374  -11.7201   19.2500 C   0  0  0  0  0  0  0  0  0  0  0  0
   10.6352   -4.8762   19.6528 C   0  0  0  0  0  0  0  0  0  0  0  0
   10.1985   -4.8508   18.2691 C   0  0  0  0  0  0  0  0  0  0  0  0
    1.0790  -11.3018   19.4088 C   0  0  0  0  0  0  0  0  0  0  0  0
    1.0798  -12.2229   21.6072 C   0  0  0  0  0  0  0  0  0  0  0  0
   13.3428   -5.0174   22.1085 C   0  0  0  0  0  0  0  0  0  0  0  0
    9.2988   -4.6856   15.7023 C   0  0  0  0  0  0  0  0  0  0  0  0
    6.9448   -9.3004   15.8780 O   0  0  0  0  0  0  0  0  0  0  0  0
   12.9009   -4.2374   24.3214 C   0  0  0  0  0  0  0  0  0  0  0  0
    2.6428  -10.0438   17.6730 C   0  0  0  0  0  0  0  0  0  0  0  0
    3.8893   -8.7716   16.1643 C   0  0  0  0  0  0  0  0  0  0  0  0
    8.8784   -5.7085   16.4902 C   0  0  0  0  0  0  0  0  0  0  0  0
   -0.2594  -12.6967   21.4175 C   0  0  0  0  0  0  0  0  0  0  0  0
   -0.9360  -12.4519   20.2217 C   0  0  0  0  0  0  0  0  0  0  0  0
   10.2217   -3.7455   16.1476 C   0  0  0  0  0  0  0  0  0  0  0  0
    1.6629  -11.5392   20.5548 C   0  0  0  0  0  0  0  0  0  0  0  0
   11.7420   -4.4611   20.3049 C   0  0  0  0  0  0  0  0  0  0  0  0
  1 23  4  0
  1 26  4  0
  2 12  4  0
  2 14  2  0
  2 21  4  0
  2 27  1  0
  3 13  1  0
  4  5  4  0
  4 27  4  0
  5  7  4  0
  5 19  1  0
  6  9  4  0
  6 26  4  0
  7 10  1  0
  7 28  4  0
  8  9  4  0
  8 23  4  0
  8 34  1  0
 10 16  1  0
 10 25  2  0
 11 27  4  0
 11 28  4  0
 12 17  4  0
 12 22  3  0
 13 20  4  0
 13 29  4  0
 14 16  1  0
 14 29  1  0
 15 20  4  0
 15 32  4  0
 17 18  4  0
 18 21  4  0
 18 31  4  0
 19 20  1  0
 19 34  1  0
 21 33  4  0
 22 30  4  0
 22 33  4  0
 24 29  4  0
 24 32  4  0
 30 31  4  0
M  END
$$$$

 Created by Python create_sdf_string function

 34 38  0  0  0  0  0  0  0  0999 V2000
   13.7297   -4.8863   23.4174 C   0  0  0  0  0  0  0  0  0  0  0  0
    1.4410  -10.6333   18.1357 C   0  0  0  0  0  0  0  0  0  0  0  0
    8.8029   -6.8284   18.4071 F   0  0  0  0  0  0  0  0  0  0  0  0
    3.8163  -10.2706   18.4016 N   0  0  0  0  0  0  0  0  0  0  0  0
    4.9166   -9.7654   17.9514 C   0  0  0  0  0  0  0  0  0  0  0  0
   11.6635   -3.7187   23.9701 C   0  0  0  0  0  0  0  0  0  0  0  0
    5.0298   -9.0138   16.8325 C   0  0  0  0  0  0  0  0  0  0  0  0
   12.1114   -4.4565   21.7296 C   0  0  0  0  0  0  0  0  0  0  0  0
   11.2486   -3.8474   22.6297 C   0  0  0  0  0  0  0  0  0  0  0  0
    6.2810   -8.5425   16.3532 C   0  0  0  0  0  0  0  0  0  0  0  0
    2.7089   -9.2755   16.5087 C   0  0  0  0  0  0  0  0  0  0  0  0
    0.3593  -10.6634   17.3993 N   0  0  0  0  0  0  0  0  0  0  0  0
    9.3117   -5.7792   17.7563 C   0  0  0  0  0  0  0  0  0  0  0  0
    7.9515   -6.6634   15.9329 C   0  0  0  0  0  0  0  0  0  0  0  0
   10.6430   -3.8387   17.4231 C   0  0  0  0  0  0  0  0  0  0  0  0
    6.8141   -7.2696   16.4739 C   0  0  0  0  0  0  0  0  0  0  0  0
   -0.6679  -11.3414   18.0251 O   0  0  0  0  0  0  0  0  0  0  0  0
   -0.2435  -11.7388   19.2626 C   0  0  0  0  0  0  0  0  0  0  0  0
   10.6479   -4.8707   19.6435 C   0  0  0  0  0  0  0  0  0  0  0  0
   10.2130   -4.8305   18.2533 C   0  0  0  0  0  0  0  0  0  0  0  0
    1.0686  -11.3016   19.3921 C   0  0  0  0  0  0  0  0  0  0  0  0
    1.0685  -12.2251   21.6054 C   0  0  0  0  0  0  0  0  0  0  0  0
   13.3319   -4.9969   22.0968 C   0  0  0  0  0  0  0  0  0  0  0  0
    9.3080   -4.6836   15.6967 C   0  0  0  0  0  0  0  0  0  0  0  0
    6.9126   -9.2866   15.8818 O   0  0  0  0  0  0  0  0  0  0  0  0
   12.9071   -4.2429   24.3350 C   0  0  0  0  0  0  0  0  0  0  0  0
    2.6704  -10.0536   17.6781 C   0  0  0  0  0  0  0  0  0  0  0  0
    3.8884   -8.7656   16.1487 C   0  0  0  0  0  0  0  0  0  0  0  0
    8.8719   -5.6771   16.4756 C   0  0  0  0  0  0  0  0  0  0  0  0
   -0.2547  -12.6940   21.4283 C   0  0  0  0  0  0  0  0  0  0  0  0
   -0.9286  -12.4471   20.2416 C   0  0  0  0  0  0  0  0  0  0  0  0
   10.2040   -3.7607   16.1474 C   0  0  0  0  0  0  0  0  0  0  0  0
    1.6901  -11.5575   20.5815 C   0  0  0  0  0  0  0  0  0  0  0  0
   11.7514   -4.4671   20.3113 C   0  0  0  0  0  0  0  0  0  0  0  0
  1 23  4  0
  1 26  4  0
  2 12  4  0
  2 21  4  0
  2 27  1  0
  3 13  1  0
  4  5  4  0
  4 27  4  0
  5  7  4  0
  6  9  4  0
  6 26  4  0
  7 10  1  0
  7 28  4  0
  8  9  4  0
  8 23  4  0
  8 34  1  0
 10 16  1  0
 10 25  2  0
 11 27  4  0
 11 28  4  0
 12 17  4  0
 13 20  4  0
 13 29  4  0
 14 16  1  0
 14 29  1  0
 15 20  4  0
 15 32  4  0
 17 18  4  0
 18 21  4  0
 18 31  4  0
 19 20  1  0
 19 34  1  0
 21 33  4  0
 22 30  4  0
 22 33  4  0
 24 29  4  0
 24 32  4  0
 30 31  4  0
M  END
$$$$

 Created by Python create_sdf_string function

 34 41  0  0  0  0  0  0  0  0999 V2000
   13.7157   -4.9170   23.4426 C   0  0  0  0  0  0  0  0  0  0  0  0
    1.4649  -10.6150   18.1446 C   0  0  0  0  0  0  0  0  0  0  0  0
    8.7721   -6.8320   18.4062 F   0  0  0  0  0  0  0  0  0  0  0  0
    3.8264  -10.2740   18.4343 N   0  0  0  0  0  0  0  0  0  0  0  0
    4.9338   -9.7658   17.9519 C   0  0  0  0  0  0  0  0  0  0  0  0
   11.6555   -3.7308   23.9587 C   0  0  0  0  0  0  0  0  0  0  0  0
    5.0290   -8.9778   16.8167 C   0  0  0  0  0  0  0  0  0  0  0  0
   12.1220   -4.4531   21.7351 C   0  0  0  0  0  0  0  0  0  0  0  0
   11.2536   -3.8363   22.6248 C   0  0  0  0  0  0  0  0  0  0  0  0
    6.2879   -8.5308   16.3342 C   0  0  0  0  0  0  0  0  0  0  0  0
    2.7263   -9.2995   16.5024 C   0  0  0  0  0  0  0  0  0  0  0  0
    0.3551  -10.6572   17.3839 N   0  0  0  0  0  0  0  0  0  0  0  0
    9.3326   -5.7824   17.7373 C   0  0  0  0  0  0  0  0  0  0  0  0
    7.9413   -6.6778   15.9591 C   0  0  0  0  0  0  0  0  0  0  0  0
   10.5844   -3.8449   17.4223 C   0  0  0  0  0  0  0  0  0  0  0  0
    6.8341   -7.2883   16.5058 C   0  0  0  0  0  0  0  0  0  0  0  0
   -0.6611  -11.3313   18.0259 O   0  0  0  0  0  0  0  0  0  0  0  0
   -0.2382  -11.7652   19.2703 C   0  0  0  0  0  0  0  0  0  0  0  0
   10.6560   -4.8767   19.6343 C   0  0  0  0  0  0  0  0  0  0  0  0
   10.2154   -4.8071   18.2621 C   0  0  0  0  0  0  0  0  0  0  0  0
    1.0867  -11.2718   19.3868 C   0  0  0  0  0  0  0  0  0  0  0  0
    1.0766  -12.2409   21.5928 C   0  0  0  0  0  0  0  0  0  0  0  0
   13.3266   -4.9538   22.0809 C   0  0  0  0  0  0  0  0  0  0  0  0
    9.3291   -4.6677   15.7012 C   0  0  0  0  0  0  0  0  0  0  0  0
    6.8833   -9.2959   15.9035 O   0  0  0  0  0  0  0  0  0  0  0  0
   12.9382   -4.2232   24.3508 C   0  0  0  0  0  0  0  0  0  0  0  0
    2.6760  -10.0590   17.6878 C   0  0  0  0  0  0  0  0  0  0  0  0
    3.8593   -8.7826   16.1806 C   0  0  0  0  0  0  0  0  0  0  0  0
    8.8692   -5.6544   16.4829 C   0  0  0  0  0  0  0  0  0  0  0  0
   -0.2720  -12.6690   21.4566 C   0  0  0  0  0  0  0  0  0  0  0  0
   -0.9302  -12.4225   20.2564 C   0  0  0  0  0  0  0  0  0  0  0  0
   10.2122   -3.7500   16.1617 C   0  0  0  0  0  0  0  0  0  0  0  0
    1.6901  -11.5587   20.5968 C   0  0  0  0  0  0  0  0  0  0  0  0
   11.7299   -4.4328   20.3241 C   0  0  0  0  0  0  0  0  0  0  0  0
  1 23  4  0
  1 26  4  0
  1 33  2  0
  2 12  4  0
  2 21  4  0
  2 27  1  0
  4  5  4  0
  4 15  1  0
  4 27  4  0
  5  7  4  0
  6  9  4  0
  6 26  4  0
  7 10  1  0
  7 28  4  0
  8  9  4  0
  8 11  1  0
  8 23  4  0
  8 34  1  0
 10 16  1  0
 10 25  2  0
 11 27  4  0
 11 28  4  0
 12 17  4  0
 13 20  4  0
 13 29  4  0
 14 16  1  0
 14 29  1  0
 15 20  4  0
 15 32  4  0
 17 18  4  0
 17 30  4  0
 18 21  4  0
 18 31  4  0
 19 20  1  0
 19 34  1  0
 21 33  4  0
 22 30  4  0
 22 33  4  0
 24 29  4  0
 24 32  4  0
 30 31  4  0
M  END
$$$$

 Created by Python create_sdf_string function

 34 38  0  0  0  0  0  0  0  0999 V2000
   13.7467   -4.9044   23.4352 C   0  0  0  0  0  0  0  0  0  0  0  0
    1.4618  -10.6352   18.1589 C   0  0  0  0  0  0  0  0  0  0  0  0
    8.7708   -6.8297   18.3903 F   0  0  0  0  0  0  0  0  0  0  0  0
    3.8305  -10.2635   18.4170 N   0  0  0  0  0  0  0  0  0  0  0  0
    4.9228   -9.7591   17.9551 C   0  0  0  0  0  0  0  0  0  0  0  0
   11.6825   -3.7312   23.9771 C   0  0  0  0  0  0  0  0  0  0  0  0
    5.0347   -9.0081   16.8339 C   0  0  0  0  0  0  0  0  0  0  0  0
   12.1303   -4.4406   21.7371 C   0  0  0  0  0  0  0  0  0  0  0  0
   11.2811   -3.8394   22.6526 C   0  0  0  0  0  0  0  0  0  0  0  0
    6.2933   -8.5406   16.3636 C   0  0  0  0  0  0  0  0  0  0  0  0
    2.7186   -9.2971   16.5208 C   0  0  0  0  0  0  0  0  0  0  0  0
    0.3645  -10.6710   17.4100 N   0  0  0  0  0  0  0  0  0  0  0  0
    9.3145   -5.7693   17.7583 C   0  0  0  0  0  0  0  0  0  0  0  0
    7.9443   -6.6603   15.9519 C   0  0  0  0  0  0  0  0  0  0  0  0
   10.6294   -3.8154   17.4334 C   0  0  0  0  0  0  0  0  0  0  0  0
    6.8388   -7.2821   16.5250 C   0  0  0  0  0  0  0  0  0  0  0  0
   -0.6430  -11.3355   18.0403 O   0  0  0  0  0  0  0  0  0  0  0  0
   -0.2212  -11.7378   19.2872 C   0  0  0  0  0  0  0  0  0  0  0  0
   10.6761   -4.8655   19.6343 C   0  0  0  0  0  0  0  0  0  0  0  0
   10.2226   -4.8103   18.2588 C   0  0  0  0  0  0  0  0  0  0  0  0
    1.0890  -11.3012   19.4115 C   0  0  0  0  0  0  0  0  0  0  0  0
    1.0693  -12.2417   21.6195 C   0  0  0  0  0  0  0  0  0  0  0  0
   13.3477   -4.9659   22.1048 C   0  0  0  0  0  0  0  0  0  0  0  0
    9.3194   -4.6641   15.6964 C   0  0  0  0  0  0  0  0  0  0  0  0
    6.8977   -9.3027   15.8789 O   0  0  0  0  0  0  0  0  0  0  0  0
   12.9312   -4.2380   24.3604 C   0  0  0  0  0  0  0  0  0  0  0  0
    2.6820  -10.0547   17.6911 C   0  0  0  0  0  0  0  0  0  0  0  0
    3.8833   -8.7725   16.1505 C   0  0  0  0  0  0  0  0  0  0  0  0
    8.8690   -5.6631   16.4785 C   0  0  0  0  0  0  0  0  0  0  0  0
   -0.2646  -12.6803   21.4720 C   0  0  0  0  0  0  0  0  0  0  0  0
   -0.9223  -12.4295   20.2768 C   0  0  0  0  0  0  0  0  0  0  0  0
   10.2018   -3.7455   16.1578 C   0  0  0  0  0  0  0  0  0  0  0  0
    1.7028  -11.5711   20.6087 C   0  0  0  0  0  0  0  0  0  0  0  0
   11.7492   -4.4293   20.3234 C   0  0  0  0  0  0  0  0  0  0  0  0
  1 23  4  0
  1 26  4  0
  2 12  4  0
  2 21  4  0
  2 27  1  0
  3 13  1  0
  4  5  4  0
  4 27  4  0
  5  7  4  0
  6  9  4  0
  6 26  4  0
  7 10  1  0
  7 28  4  0
  8  9  4  0
  8 23  4  0
  8 34  1  0
 10 16  1  0
 10 25  2  0
 11 27  4  0
 11 28  4  0
 12 17  4  0
 13 20  4  0
 13 29  4  0
 14 16  1  0
 14 29  1  0
 15 20  4  0
 15 32  4  0
 17 18  4  0
 18 21  4  0
 18 31  4  0
 19 20  1  0
 19 34  1  0
 21 33  4  0
 22 30  4  0
 22 33  4  0
 24 29  4  0
 24 32  4  0
 30 31  4  0
M  END
$$$$

 Created by Python create_sdf_string function

 34 40  0  0  0  0  0  0  0  0999 V2000
   13.7457   -4.8927   23.4206 C   0  0  0  0  0  0  0  0  0  0  0  0
    1.4495  -10.6333   18.1508 C   0  0  0  0  0  0  0  0  0  0  0  0
    8.7514   -6.8187   18.3992 F   0  0  0  0  0  0  0  0  0  0  0  0
    3.8366  -10.2740   18.4263 N   0  0  0  0  0  0  0  0  0  0  0  0
    4.9241   -9.7719   17.9389 C   0  0  0  0  0  0  0  0  0  0  0  0
   11.6934   -3.7375   23.9620 C   0  0  0  0  0  0  0  0  0  0  0  0
    5.0329   -9.0318   16.8202 C   0  0  0  0  0  0  0  0  0  0  0  0
   12.1182   -4.4366   21.7353 C   0  0  0  0  0  0  0  0  0  0  0  0
   11.2863   -3.8396   22.6470 C   0  0  0  0  0  0  0  0  0  0  0  0
    6.2897   -8.5536   16.3733 C   0  0  0  0  0  0  0  0  0  0  0  0
    2.7045   -9.2863   16.5296 C   0  0  0  0  0  0  0  0  0  0  0  0
    0.3582  -10.6569   17.3981 N   0  0  0  0  0  0  0  0  0  0  0  0
    9.3218   -5.7970   17.7834 C   0  0  0  0  0  0  0  0  0  0  0  0
    7.9304   -6.6508   15.9463 C   0  0  0  0  0  0  0  0  0  0  0  0
   10.6372   -3.7899   17.4395 C   0  0  0  0  0  0  0  0  0  0  0  0
    6.8001   -7.2816   16.5341 C   0  0  0  0  0  0  0  0  0  0  0  0
   -0.6323  -11.3343   18.0478 O   0  0  0  0  0  0  0  0  0  0  0  0
   -0.2253  -11.7360   19.2993 C   0  0  0  0  0  0  0  0  0  0  0  0
   10.6703   -4.8435   19.6225 C   0  0  0  0  0  0  0  0  0  0  0  0
   10.2200   -4.8144   18.2392 C   0  0  0  0  0  0  0  0  0  0  0  0
    1.0867  -11.3219   19.4456 O   0  0  0  0  0  0  0  0  0  0  0  0
    1.0566  -12.2395   21.6058 C   0  0  0  0  0  0  0  0  0  0  0  0
   13.3405   -4.9749   22.1182 C   0  0  0  0  0  0  0  0  0  0  0  0
    9.3207   -4.6325   15.6845 C   0  0  0  0  0  0  0  0  0  0  0  0
    6.8814   -9.2962   15.8754 O   0  0  0  0  0  0  0  0  0  0  0  0
   12.9267   -4.2517   24.3649 C   0  0  0  0  0  0  0  0  0  0  0  0
    2.6746  -10.0498   17.6792 C   0  0  0  0  0  0  0  0  0  0  0  0
    3.8484   -8.7707   16.1756 C   0  0  0  0  0  0  0  0  0  0  0  0
    8.8756   -5.6344   16.5059 C   0  0  0  0  0  0  0  0  0  0  0  0
   -0.2788  -12.6924   21.4995 C   0  0  0  0  0  0  0  0  0  0  0  0
   -0.8913  -12.4275   20.2940 C   0  0  0  0  0  0  0  0  0  0  0  0
   10.2240   -3.7485   16.1490 C   0  0  0  0  0  0  0  0  0  0  0  0
    1.6876  -11.5907   20.6137 C   0  0  0  0  0  0  0  0  0  0  0  0
   11.7387   -4.4107   20.3114 C   0  0  0  0  0  0  0  0  0  0  0  0
  1 11  1  0
  1 23  4  0
  1 26  4  0
  2 12  4  0
  2 21  4  0
  2 27  1  0
  3 13  1  0
  4  5  4  0
  4 27  4  0
  5  7  4  0
  6  9  4  0
  6 26  4  0
  7 10  1  0
  7 28  4  0
  8  9  4  0
  8 23  4  0
  8 34  1  0
 10 16  1  0
 10 25  2  0
 11 27  4  0
 11 28  4  0
 12 17  4  0
 12 19  1  0
 13 20  4  0
 13 29  4  0
 14 16  1  0
 14 29  1  0
 15 20  4  0
 15 32  4  0
 17 18  4  0
 18 21  4  0
 18 31  4  0
 19 20  1  0
 19 34  1  0
 21 33  4  0
 22 30  4  0
 22 33  4  0
 24 29  4  0
 25 34  1  0
 30 31  4  0
M  END
$$$$

 Created by Python create_sdf_string function

 34 38  0  0  0  0  0  0  0  0999 V2000
   13.7730   -4.8964   23.4338 C   0  0  0  0  0  0  0  0  0  0  0  0
    1.4474  -10.6475   18.1655 C   0  0  0  0  0  0  0  0  0  0  0  0
    8.7628   -6.8121   18.3956 F   0  0  0  0  0  0  0  0  0  0  0  0
    3.8235  -10.2804   18.4140 N   0  0  0  0  0  0  0  0  0  0  0  0
    4.9224   -9.7770   17.9495 C   0  0  0  0  0  0  0  0  0  0  0  0
   11.7116   -3.7421   23.9826 C   0  0  0  0  0  0  0  0  0  0  0  0
    5.0334   -9.0198   16.8342 C   0  0  0  0  0  0  0  0  0  0  0  0
   12.1397   -4.4358   21.7414 C   0  0  0  0  0  0  0  0  0  0  0  0
   11.3018   -3.8345   22.6702 C   0  0  0  0  0  0  0  0  0  0  0  0
    6.2907   -8.5443   16.3701 C   0  0  0  0  0  0  0  0  0  0  0  0
    2.7082   -9.2844   16.5360 C   0  0  0  0  0  0  0  0  0  0  0  0
    0.3594  -10.6742   17.4203 N   0  0  0  0  0  0  0  0  0  0  0  0
    9.3135   -5.7557   17.7597 C   0  0  0  0  0  0  0  0  0  0  0  0
    7.9267   -6.6388   15.9617 C   0  0  0  0  0  0  0  0  0  0  0  0
   10.6474   -3.8023   17.4291 C   0  0  0  0  0  0  0  0  0  0  0  0
    6.8095   -7.2847   16.5398 N   0  0  0  0  0  0  0  0  0  0  0  0
   -0.6428  -11.3362   18.0539 O   0  0  0  0  0  0  0  0  0  0  0  0
   -0.2338  -11.7426   19.3062 C   0  0  0  0  0  0  0  0  0  0  0  0
   10.6911   -4.8456   19.6281 C   0  0  0  0  0  0  0  0  0  0  0  0
   10.2284   -4.8002   18.2484 C   0  0  0  0  0  0  0  0  0  0  0  0
    1.0720  -11.3193   19.4285 C   0  0  0  0  0  0  0  0  0  0  0  0
    1.0687  -12.2469   21.6392 C   0  0  0  0  0  0  0  0  0  0  0  0
   13.3547   -4.9738   22.1122 C   0  0  0  0  0  0  0  0  0  0  0  0
    9.3187   -4.6419   15.6886 C   0  0  0  0  0  0  0  0  0  0  0  0
    6.8971   -9.2927   15.8615 O   0  0  0  0  0  0  0  0  0  0  0  0
   12.9417   -4.2628   24.3687 C   0  0  0  0  0  0  0  0  0  0  0  0
    2.6778  -10.0574   17.6924 C   0  0  0  0  0  0  0  0  0  0  0  0
    3.8816   -8.7686   16.1546 C   0  0  0  0  0  0  0  0  0  0  0  0
    8.8701   -5.6405   16.4856 C   0  0  0  0  0  0  0  0  0  0  0  0
   -0.2700  -12.6908   21.4964 C   0  0  0  0  0  0  0  0  0  0  0  0
   -0.9155  -12.4351   20.3067 C   0  0  0  0  0  0  0  0  0  0  0  0
   10.2202   -3.7235   16.1485 C   0  0  0  0  0  0  0  0  0  0  0  0
    1.6913  -11.5922   20.6064 C   0  0  0  0  0  0  0  0  0  0  0  0
   11.7693   -4.4066   20.3169 C   0  0  0  0  0  0  0  0  0  0  0  0
  1 23  4  0
  1 26  4  0
  2 12  4  0
  2 21  4  0
  2 27  1  0
  3 13  1  0
  4  5  4  0
  4 27  4  0
  5  7  4  0
  6  9  4  0
  6 26  4  0
  7 10  1  0
  7 28  4  0
  8  9  4  0
  8 23  4  0
  8 34  1  0
 10 16  1  0
 10 25  2  0
 11 27  4  0
 11 28  4  0
 12 17  4  0
 13 20  4  0
 13 29  4  0
 14 16  1  0
 14 29  1  0
 15 20  4  0
 15 32  4  0
 17 18  4  0
 18 21  4  0
 18 31  4  0
 19 20  1  0
 19 34  1  0
 21 33  4  0
 22 30  4  0
 22 33  4  0
 24 29  4  0
 24 32  4  0
 30 31  4  0
M  END
$$$$

 Created by Python create_sdf_string function

 34 40  0  0  0  0  0  0  0  0999 V2000
   13.7820   -4.8795   23.4434 C   0  0  0  0  0  0  0  0  0  0  0  0
    1.4579  -10.6372   18.1760 C   0  0  0  0  0  0  0  0  0  0  0  0
    8.7706   -6.8252   18.3952 F   0  0  0  0  0  0  0  0  0  0  0  0
    3.8024  -10.2983   18.4009 N   0  0  0  0  0  0  0  0  0  0  0  0
    4.9263   -9.7712   17.9581 C   0  0  0  0  0  0  0  0  0  0  0  0
   11.6968   -3.7614   23.9871 C   0  0  0  0  0  0  0  0  0  0  0  0
    5.0231   -9.0181   16.8380 C   0  0  0  0  0  0  0  0  0  0  0  0
   12.1390   -4.4281   21.7329 C   0  0  0  0  0  0  0  0  0  0  0  0
   11.3063   -3.8419   22.6649 C   0  0  0  0  0  0  0  0  0  0  0  0
    6.2861   -8.5325   16.3630 C   0  0  0  0  0  0  0  0  0  0  0  0
    2.7066   -9.2903   16.5352 C   0  0  0  0  0  0  0  0  0  0  0  0
    0.3689  -10.6900   17.3973 N   0  0  0  0  0  0  0  0  0  0  0  0
    9.3033   -5.7374   17.7704 C   0  0  0  0  0  0  0  0  0  0  0  0
    7.9238   -6.6491   15.9709 C   0  0  0  0  0  0  0  0  0  0  0  0
   10.6421   -3.8097   17.4240 C   0  0  0  0  0  0  0  0  0  0  0  0
    6.7952   -7.2873   16.5397 N   0  0  0  0  0  0  0  0  0  0  0  0
   -0.6430  -11.3386   18.0533 O   0  0  0  0  0  0  0  0  0  0  0  0
   -0.2416  -11.7373   19.3031 C   0  0  0  0  0  0  0  0  0  0  0  0
   10.6890   -4.8521   19.6385 C   0  0  0  0  0  0  0  0  0  0  0  0
   10.2340   -4.8092   18.2360 C   0  0  0  0  0  0  0  0  0  0  0  0
    1.0560  -11.3242   19.4356 C   0  0  0  0  0  0  0  0  0  0  0  0
    1.0717  -12.2471   21.6145 C   0  0  0  0  0  0  0  0  0  0  0  0
   13.3526   -4.9702   22.1009 C   0  0  0  0  0  0  0  0  0  0  0  0
    9.3311   -4.6478   15.6875 O   0  0  0  0  0  0  0  0  0  0  0  0
    6.8965   -9.2916   15.8784 O   0  0  0  0  0  0  0  0  0  0  0  0
   12.9337   -4.2538   24.3838 C   0  0  0  0  0  0  0  0  0  0  0  0
    2.6726  -10.0635   17.6774 C   0  0  0  0  0  0  0  0  0  0  0  0
    3.8797   -8.7788   16.1508 C   0  0  0  0  0  0  0  0  0  0  0  0
    8.8732   -5.6334   16.4812 C   0  0  0  0  0  0  0  0  0  0  0  0
   -0.2792  -12.6731   21.4896 C   0  0  0  0  0  0  0  0  0  0  0  0
   -0.9140  -12.4232   20.3295 C   0  0  0  0  0  0  0  0  0  0  0  0
   10.2366   -3.7376   16.1466 C   0  0  0  0  0  0  0  0  0  0  0  0
    1.7063  -11.5936   20.6062 O   0  0  0  0  0  0  0  0  0  0  0  0
   11.7797   -4.4165   20.3132 C   0  0  0  0  0  0  0  0  0  0  0  0
  1 23  4  0
  1 26  4  0
  2 12  4  0
  2 21  4  0
  2 27  1  0
  3 13  1  0
  3 17  1  0
  4  5  4  0
  4 27  4  0
  5  7  4  0
  6  9  4  0
  6 26  4  0
  7 10  1  0
  7 28  4  0
  8  9  4  0
  8 23  4  0
  8 34  1  0
 10 16  1  0
 10 25  2  0
 11 27  4  0
 11 28  4  0
 12 17  4  0
 13 20  4  0
 13 29  4  0
 14 16  1  0
 14 29  1  0
 15 20  4  0
 15 32  4  0
 17 18  4  0
 18 21  4  0
 18 31  4  0
 18 32  2  0
 19 20  1  0
 19 34  1  0
 21 33  4  0
 22 30  4  0
 22 33  4  0
 24 29  4  0
 24 32  4  0
 30 31  4  0
M  END
$$$$

 Created by Python create_sdf_string function

 34 38  0  0  0  0  0  0  0  0999 V2000
   13.7998   -4.8852   23.4421 C   0  0  0  0  0  0  0  0  0  0  0  0
    1.4567  -10.6554   18.1728 C   0  0  0  0  0  0  0  0  0  0  0  0
    8.7586   -6.8055   18.3769 F   0  0  0  0  0  0  0  0  0  0  0  0
    3.8142  -10.2795   18.3973 N   0  0  0  0  0  0  0  0  0  0  0  0
    4.9172   -9.7678   17.9466 C   0  0  0  0  0  0  0  0  0  0  0  0
   11.7121   -3.7607   23.9993 C   0  0  0  0  0  0  0  0  0  0  0  0
    5.0346   -9.0120   16.8360 C   0  0  0  0  0  0  0  0  0  0  0  0
   12.1624   -4.4326   21.7422 C   0  0  0  0  0  0  0  0  0  0  0  0
   11.3224   -3.8427   22.6774 C   0  0  0  0  0  0  0  0  0  0  0  0
    6.2930   -8.5336   16.3736 C   0  0  0  0  0  0  0  0  0  0  0  0
    2.7257   -9.2875   16.5285 C   0  0  0  0  0  0  0  0  0  0  0  0
    0.3679  -10.6945   17.4215 N   0  0  0  0  0  0  0  0  0  0  0  0
    9.3008   -5.7412   17.7541 C   0  0  0  0  0  0  0  0  0  0  0  0
    7.9237   -6.6318   15.9534 C   0  0  0  0  0  0  0  0  0  0  0  0
   10.6550   -3.8092   17.4175 C   0  0  0  0  0  0  0  0  0  0  0  0
    6.8268   -7.3268   16.5163 N   0  0  0  0  0  0  0  0  0  0  0  0
   -0.6396  -11.3403   18.0632 O   0  0  0  0  0  0  0  0  0  0  0  0
   -0.2384  -11.7440   19.3264 C   0  0  0  0  0  0  0  0  0  0  0  0
   10.7095   -4.8475   19.6384 C   0  0  0  0  0  0  0  0  0  0  0  0
   10.2347   -4.7982   18.2531 C   0  0  0  0  0  0  0  0  0  0  0  0
    1.0534  -11.3359   19.4489 C   0  0  0  0  0  0  0  0  0  0  0  0
    1.0706  -12.2503   21.6309 C   0  0  0  0  0  0  0  0  0  0  0  0
   13.3775   -4.9658   22.1123 C   0  0  0  0  0  0  0  0  0  0  0  0
    9.3387   -4.6496   15.6946 C   0  0  0  0  0  0  0  0  0  0  0  0
    6.8905   -9.3034   15.8666 O   0  0  0  0  0  0  0  0  0  0  0  0
   12.9542   -4.2669   24.3847 C   0  0  0  0  0  0  0  0  0  0  0  0
    2.6812  -10.0557   17.6756 C   0  0  0  0  0  0  0  0  0  0  0  0
    3.8891   -8.7759   16.1477 C   0  0  0  0  0  0  0  0  0  0  0  0
    8.8731   -5.6291   16.4766 C   0  0  0  0  0  0  0  0  0  0  0  0
   -0.2631  -12.6756   21.5021 C   0  0  0  0  0  0  0  0  0  0  0  0
   -0.9385  -12.4280   20.3274 C   0  0  0  0  0  0  0  0  0  0  0  0
   10.2328   -3.7258   16.1350 C   0  0  0  0  0  0  0  0  0  0  0  0
    1.6841  -11.6049   20.6181 N   0  0  0  0  0  0  0  0  0  0  0  0
   11.7979   -4.4086   20.3186 C   0  0  0  0  0  0  0  0  0  0  0  0
  1 23  4  0
  1 26  4  0
  2 12  4  0
  2 21  4  0
  2 27  1  0
  3 13  1  0
  4  5  4  0
  4 27  4  0
  5  7  4  0
  6  9  4  0
  6 26  4  0
  7 10  1  0
  7 28  4  0
  8  9  4  0
  8 23  4  0
  8 34  1  0
 10 16  1  0
 10 25  2  0
 11 27  4  0
 11 28  4  0
 12 17  4  0
 13 20  4  0
 13 29  4  0
 14 16  1  0
 14 29  1  0
 15 20  4  0
 15 32  4  0
 17 18  4  0
 18 21  4  0
 18 31  4  0
 19 20  1  0
 19 34  1  0
 21 33  4  0
 22 30  4  0
 22 33  4  0
 24 29  4  0
 24 32  4  0
 30 31  4  0
M  END
$$$$

 Created by Python create_sdf_string function

 34 38  0  0  0  0  0  0  0  0999 V2000
   13.7949   -4.8813   23.4376 C   0  0  0  0  0  0  0  0  0  0  0  0
    1.4666  -10.6721   18.1833 C   0  0  0  0  0  0  0  0  0  0  0  0
    8.7654   -6.8213   18.3779 F   0  0  0  0  0  0  0  0  0  0  0  0
    3.8259  -10.2750   18.4051 N   0  0  0  0  0  0  0  0  0  0  0  0
    4.9145   -9.7755   17.9431 C   0  0  0  0  0  0  0  0  0  0  0  0
   11.7112   -3.7522   23.9967 C   0  0  0  0  0  0  0  0  0  0  0  0
    5.0377   -9.0059   16.8334 C   0  0  0  0  0  0  0  0  0  0  0  0
   12.1593   -4.4343   21.7375 C   0  0  0  0  0  0  0  0  0  0  0  0
   11.3267   -3.8436   22.6856 C   0  0  0  0  0  0  0  0  0  0  0  0
    6.2934   -8.5236   16.3799 C   0  0  0  0  0  0  0  0  0  0  0  0
    2.7242   -9.2926   16.5231 C   0  0  0  0  0  0  0  0  0  0  0  0
    0.3655  -10.6996   17.4231 N   0  0  0  0  0  0  0  0  0  0  0  0
    9.2994   -5.7537   17.7541 C   0  0  0  0  0  0  0  0  0  0  0  0
    7.9255   -6.6321   15.9553 C   0  0  0  0  0  0  0  0  0  0  0  0
   10.6571   -3.8101   17.4218 C   0  0  0  0  0  0  0  0  0  0  0  0
    6.8262   -7.3260   16.5215 N   0  0  0  0  0  0  0  0  0  0  0  0
   -0.6458  -11.3402   18.0562 O   0  0  0  0  0  0  0  0  0  0  0  0
   -0.2465  -11.7458   19.3224 C   0  0  0  0  0  0  0  0  0  0  0  0
   10.7162   -4.8515   19.6446 C   0  0  0  0  0  0  0  0  0  0  0  0
   10.2410   -4.8130   18.2594 C   0  0  0  0  0  0  0  0  0  0  0  0
    1.0421  -11.3363   19.4366 C   0  0  0  0  0  0  0  0  0  0  0  0
    1.0724  -12.2481   21.6418 C   0  0  0  0  0  0  0  0  0  0  0  0
   13.3824   -4.9735   22.1119 C   0  0  0  0  0  0  0  0  0  0  0  0
    9.3307   -4.6545   15.6981 C   0  0  0  0  0  0  0  0  0  0  0  0
    6.8819   -9.3015   15.8628 O   0  0  0  0  0  0  0  0  0  0  0  0
   12.9480   -4.2761   24.3755 C   0  0  0  0  0  0  0  0  0  0  0  0
    2.6763  -10.0558   17.6688 C   0  0  0  0  0  0  0  0  0  0  0  0
    3.8905   -8.7760   16.1442 C   0  0  0  0  0  0  0  0  0  0  0  0
    8.8666   -5.6273   16.4843 C   0  0  0  0  0  0  0  0  0  0  0  0
   -0.2494  -12.6759   21.5030 C   0  0  0  0  0  0  0  0  0  0  0  0
   -0.9439  -12.4331   20.3310 C   0  0  0  0  0  0  0  0  0  0  0  0
   10.2274   -3.7373   16.1404 C   0  0  0  0  0  0  0  0  0  0  0  0
    1.6923  -11.6032   20.6122 N   0  0  0  0  0  0  0  0  0  0  0  0
   11.7823   -4.3984   20.3249 C   0  0  0  0  0  0  0  0  0  0  0  0
  1 23  4  0
  1 26  4  0
  2 12  4  0
  2 21  4  0
  2 27  1  0
  3 13  1  0
  4  5  4  0
  4 27  4  0
  5  7  4  0
  6  9  4  0
  6 26  4  0
  7 10  1  0
  7 28  4  0
  8  9  4  0
  8 23  4  0
  8 34  1  0
 10 16  1  0
 10 25  2  0
 11 27  4  0
 11 28  4  0
 12 17  4  0
 13 20  4  0
 13 29  4  0
 14 16  1  0
 14 29  1  0
 15 20  4  0
 15 32  4  0
 17 18  4  0
 18 21  4  0
 18 31  4  0
 19 20  1  0
 19 34  1  0
 21 33  4  0
 22 30  4  0
 22 33  4  0
 24 29  4  0
 24 32  4  0
 30 31  4  0
M  END
$$$$

 Created by Python create_sdf_string function

 34 38  0  0  0  0  0  0  0  0999 V2000
   13.8205   -4.8920   23.4433 C   0  0  0  0  0  0  0  0  0  0  0  0
    1.4669  -10.6691   18.1859 C   0  0  0  0  0  0  0  0  0  0  0  0
    8.7627   -6.8005   18.3722 F   0  0  0  0  0  0  0  0  0  0  0  0
    3.8202  -10.2711   18.3989 N   0  0  0  0  0  0  0  0  0  0  0  0
    4.9173   -9.7636   17.9392 C   0  0  0  0  0  0  0  0  0  0  0  0
   11.7325   -3.7593   24.0087 C   0  0  0  0  0  0  0  0  0  0  0  0
    5.0392   -9.0129   16.8336 C   0  0  0  0  0  0  0  0  0  0  0  0
   12.1793   -4.4349   21.7467 C   0  0  0  0  0  0  0  0  0  0  0  0
   11.3405   -3.8435   22.6869 C   0  0  0  0  0  0  0  0  0  0  0  0
    6.2951   -8.5428   16.3729 C   0  0  0  0  0  0  0  0  0  0  0  0
    2.7327   -9.2913   16.5208 C   0  0  0  0  0  0  0  0  0  0  0  0
    0.3713  -10.7045   17.4384 N   0  0  0  0  0  0  0  0  0  0  0  0
    9.3047   -5.7475   17.7557 C   0  0  0  0  0  0  0  0  0  0  0  0
    7.9228   -6.6192   15.9477 C   0  0  0  0  0  0  0  0  0  0  0  0
   10.6648   -3.8124   17.4246 C   0  0  0  0  0  0  0  0  0  0  0  0
    6.8561   -7.3480   16.5073 N   0  0  0  0  0  0  0  0  0  0  0  0
   -0.6455  -11.3465   18.0730 O   0  0  0  0  0  0  0  0  0  0  0  0
   -0.2473  -11.7552   19.3420 C   0  0  0  0  0  0  0  0  0  0  0  0
   10.7297   -4.8505   19.6431 C   0  0  0  0  0  0  0  0  0  0  0  0
   10.2433   -4.8044   18.2631 C   0  0  0  0  0  0  0  0  0  0  0  0
    1.0440  -11.3509   19.4573 C   0  0  0  0  0  0  0  0  0  0  0  0
    1.0743  -12.2469   21.6427 C   0  0  0  0  0  0  0  0  0  0  0  0
   13.3998   -4.9679   22.1154 C   0  0  0  0  0  0  0  0  0  0  0  0
    9.3280   -4.6477   15.7014 C   0  0  0  0  0  0  0  0  0  0  0  0
    6.8791   -9.3185   15.8540 O   0  0  0  0  0  0  0  0  0  0  0  0
   12.9710   -4.2837   24.3873 C   0  0  0  0  0  0  0  0  0  0  0  0
    2.6826  -10.0596   17.6737 C   0  0  0  0  0  0  0  0  0  0  0  0
    3.8943   -8.7757   16.1424 C   0  0  0  0  0  0  0  0  0  0  0  0
    8.8724   -5.6327   16.4893 C   0  0  0  0  0  0  0  0  0  0  0  0
   -0.2553  -12.6804   21.5118 C   0  0  0  0  0  0  0  0  0  0  0  0
   -0.9420  -12.4347   20.3428 C   0  0  0  0  0  0  0  0  0  0  0  0
   10.2293   -3.7311   16.1487 C   0  0  0  0  0  0  0  0  0  0  0  0
    1.6957  -11.6063   20.6222 N   0  0  0  0  0  0  0  0  0  0  0  0
   11.7983   -4.3974   20.3233 C   0  0  0  0  0  0  0  0  0  0  0  0
  1 23  4  0
  1 26  4  0
  2 12  4  0
  2 21  4  0
  2 27  1  0
  3 13  1  0
  4  5  4  0
  4 27  4  0
  5  7  4  0
  6  9  4  0
  6 26  4  0
  7 10  1  0
  7 28  4  0
  8  9  4  0
  8 23  4  0
  8 34  1  0
 10 16  1  0
 10 25  2  0
 11 27  4  0
 11 28  4  0
 12 17  4  0
 13 20  4  0
 13 29  4  0
 14 16  1  0
 14 29  1  0
 15 20  4  0
 15 32  4  0
 17 18  4  0
 18 21  4  0
 18 31  4  0
 19 20  1  0
 19 34  1  0
 21 33  4  0
 22 30  4  0
 22 33  4  0
 24 29  4  0
 24 32  4  0
 30 31  4  0
M  END
$$$$

 Created by Python create_sdf_string function

 34 40  0  0  0  0  0  0  0  0999 V2000
   13.8160   -4.8930   23.4372 C   0  0  0  0  0  0  0  0  0  0  0  0
    1.4680  -10.6696   18.1858 C   0  0  0  0  0  0  0  0  0  0  0  0
    8.7589   -6.7977   18.3762 F   0  0  0  0  0  0  0  0  0  0  0  0
    3.8228  -10.2677   18.3999 N   0  0  0  0  0  0  0  0  0  0  0  0
    4.9118   -9.7615   17.9426 C   0  0  0  0  0  0  0  0  0  0  0  0
   11.7315   -3.7552   24.0087 C   0  0  0  0  0  0  0  0  0  0  0  0
    5.0478   -9.0135   16.8330 C   0  0  0  0  0  0  0  0  0  0  0  0
   12.1806   -4.4374   21.7482 C   0  0  0  0  0  0  0  0  0  0  0  0
   11.3393   -3.8508   22.6876 C   0  0  0  0  0  0  0  0  0  0  0  0
    6.2970   -8.5393   16.3647 C   0  0  0  0  0  0  0  0  0  0  0  0
    2.7317   -9.2876   16.5219 C   0  0  0  0  0  0  0  0  0  0  0  0
    0.3692  -10.7074   17.4391 N   0  0  0  0  0  0  0  0  0  0  0  0
    9.3061   -5.7456   17.7527 C   0  0  0  0  0  0  0  0  0  0  0  0
    7.9234   -6.6164   15.9473 C   0  0  0  0  0  0  0  0  0  0  0  0
   10.6682   -3.8123   17.4240 C   0  0  0  0  0  0  0  0  0  0  0  0
    6.8473   -7.3500   16.5099 N   0  0  0  0  0  0  0  0  0  0  0  0
   -0.6481  -11.3411   18.0683 O   0  0  0  0  0  0  0  0  0  0  0  0
   -0.2480  -11.7559   19.3406 C   0  0  0  0  0  0  0  0  0  0  0  0
   10.7288   -4.8499   19.6509 C   0  0  0  0  0  0  0  0  0  0  0  0
   10.2402   -4.8002   18.2669 C   0  0  0  0  0  0  0  0  0  0  0  0
    1.0398  -11.3510   19.4602 C   0  0  0  0  0  0  0  0  0  0  0  0
    1.0735  -12.2426   21.6396 C   0  0  0  0  0  0  0  0  0  0  0  0
   13.4006   -4.9614   22.1113 C   0  0  0  0  0  0  0  0  0  0  0  0
    9.3288   -4.6480   15.7063 C   0  0  0  0  0  0  0  0  0  0  0  0
    6.8803   -9.3179   15.8532 O   0  0  0  0  0  0  0  0  0  0  0  0
   12.9730   -4.2824   24.3860 C   0  0  0  0  0  0  0  0  0  0  0  0
    2.6831  -10.0564   17.6696 C   0  0  0  0  0  0  0  0  0  0  0  0
    3.8879   -8.7720   16.1429 C   0  0  0  0  0  0  0  0  0  0  0  0
    8.8713   -5.6353   16.4907 C   0  0  0  0  0  0  0  0  0  0  0  0
   -0.2589  -12.6755   21.5149 C   0  0  0  0  0  0  0  0  0  0  0  0
   -0.9387  -12.4388   20.3380 C   0  0  0  0  0  0  0  0  0  0  0  0
   10.2270   -3.7310   16.1508 C   0  0  0  0  0  0  0  0  0  0  0  0
    1.6975  -11.6041   20.6227 N   0  0  0  0  0  0  0  0  0  0  0  0
   11.7969   -4.3963   20.3242 C   0  0  0  0  0  0  0  0  0  0  0  0
  1 23  4  0
  1 26  4  0
  2 12  4  0
  2 21  4  0
  2 27  1  0
  3 13  1  0
  4  5  4  0
  4 27  4  0
  5  7  4  0
  6  9  4  0
  6 26  4  0
  7 10  1  0
  7 28  4  0
  8  9  4  0
  8 23  4  0
  8 34  1  0
 10 16  1  0
 10 25  2  0
 10 31  4  0
 11 27  4  0
 11 28  4  0
 12 17  4  0
 13 20  4  0
 13 29  4  0
 14 16  1  0
 14 29  1  0
 15 20  4  0
 15 32  4  0
 16 19  4  0
 17 18  4  0
 18 21  4  0
 18 31  4  0
 19 20  1  0
 19 34  1  0
 21 33  4  0
 22 30  4  0
 22 33  4  0
 24 29  4  0
 24 32  4  0
 30 31  4  0
M  END
$$$$

 Created by Python create_sdf_string function

 34 38  0  0  0  0  0  0  0  0999 V2000
   13.8414   -4.8994   23.4450 C   0  0  0  0  0  0  0  0  0  0  0  0
    1.4655  -10.6724   18.1924 C   0  0  0  0  0  0  0  0  0  0  0  0
    8.7555   -6.7883   18.3751 F   0  0  0  0  0  0  0  0  0  0  0  0
    3.8193  -10.2678   18.4021 N   0  0  0  0  0  0  0  0  0  0  0  0
    4.9191   -9.7574   17.9432 C   0  0  0  0  0  0  0  0  0  0  0  0
   11.7489   -3.7619   24.0213 C   0  0  0  0  0  0  0  0  0  0  0  0
    5.0419   -9.0147   16.8294 C   0  0  0  0  0  0  0  0  0  0  0  0
   12.1972   -4.4340   21.7554 C   0  0  0  0  0  0  0  0  0  0  0  0
   11.3529   -3.8485   22.6963 C   0  0  0  0  0  0  0  0  0  0  0  0
    6.3087   -8.5557   16.3594 C   0  0  0  0  0  0  0  0  0  0  0  0
    2.7341   -9.2892   16.5217 C   0  0  0  0  0  0  0  0  0  0  0  0
    0.3758  -10.7082   17.4482 N   0  0  0  0  0  0  0  0  0  0  0  0
    9.3088   -5.7383   17.7582 C   0  0  0  0  0  0  0  0  0  0  0  0
    7.9229   -6.6056   15.9415 C   0  0  0  0  0  0  0  0  0  0  0  0
   10.6735   -3.8104   17.4298 C   0  0  0  0  0  0  0  0  0  0  0  0
    6.8738   -7.3651   16.4956 N   0  0  0  0  0  0  0  0  0  0  0  0
   -0.6456  -11.3484   18.0831 O   0  0  0  0  0  0  0  0  0  0  0  0
   -0.2499  -11.7607   19.3505 C   0  0  0  0  0  0  0  0  0  0  0  0
   10.7419   -4.8468   19.6468 C   0  0  0  0  0  0  0  0  0  0  0  0
   10.2470   -4.7977   18.2642 C   0  0  0  0  0  0  0  0  0  0  0  0
    1.0430  -11.3551   19.4658 C   0  0  0  0  0  0  0  0  0  0  0  0
    1.0668  -12.2479   21.6491 C   0  0  0  0  0  0  0  0  0  0  0  0
   13.4199   -4.9596   22.1187 C   0  0  0  0  0  0  0  0  0  0  0  0
    9.3280   -4.6394   15.7053 C   0  0  0  0  0  0  0  0  0  0  0  0
    6.8808   -9.3332   15.8408 O   0  0  0  0  0  0  0  0  0  0  0  0
   12.9948   -4.2905   24.3969 C   0  0  0  0  0  0  0  0  0  0  0  0
    2.6815  -10.0602   17.6779 C   0  0  0  0  0  0  0  0  0  0  0  0
    3.8976   -8.7737   16.1396 C   0  0  0  0  0  0  0  0  0  0  0  0
    8.8754   -5.6268   16.4908 C   0  0  0  0  0  0  0  0  0  0  0  0
   -0.2585  -12.6792   21.5215 C   0  0  0  0  0  0  0  0  0  0  0  0
   -0.9452  -12.4414   20.3506 C   0  0  0  0  0  0  0  0  0  0  0  0
   10.2326   -3.7246   16.1576 C   0  0  0  0  0  0  0  0  0  0  0  0
    1.6979  -11.6097   20.6361 N   0  0  0  0  0  0  0  0  0  0  0  0
   11.8162   -4.3926   20.3261 C   0  0  0  0  0  0  0  0  0  0  0  0
  1 23  4  0
  1 26  4  0
  2 12  4  0
  2 21  4  0
  2 27  1  0
  3 13  1  0
  4  5  4  0
  4 27  4  0
  5  7  4  0
  6  9  4  0
  6 26  4  0
  7 10  1  0
  7 28  4  0
  8  9  4  0
  8 23  4  0
  8 34  1  0
 10 16  1  0
 10 25  2  0
 11 27  4  0
 11 28  4  0
 12 17  4  0
 13 20  4  0
 13 29  4  0
 14 16  1  0
 14 29  1  0
 15 20  4  0
 15 32  4  0
 17 18  4  0
 18 21  4  0
 18 31  4  0
 19 20  1  0
 19 34  1  0
 21 33  4  0
 22 30  4  0
 22 33  4  0
 24 29  4  0
 24 32  4  0
 30 31  4  0
M  END
$$$$

 Created by Python create_sdf_string function

 34 38  0  0  0  0  0  0  0  0999 V2000
   13.8414   -4.8994   23.4450 C   0  0  0  0  0  0  0  0  0  0  0  0
    1.4655  -10.6724   18.1924 C   0  0  0  0  0  0  0  0  0  0  0  0
    8.7555   -6.7883   18.3751 F   0  0  0  0  0  0  0  0  0  0  0  0
    3.8193  -10.2678   18.4021 N   0  0  0  0  0  0  0  0  0  0  0  0
    4.9191   -9.7574   17.9432 C   0  0  0  0  0  0  0  0  0  0  0  0
   11.7489   -3.7619   24.0213 C   0  0  0  0  0  0  0  0  0  0  0  0
    5.0419   -9.0147   16.8294 C   0  0  0  0  0  0  0  0  0  0  0  0
   12.1972   -4.4340   21.7554 C   0  0  0  0  0  0  0  0  0  0  0  0
   11.3529   -3.8485   22.6963 C   0  0  0  0  0  0  0  0  0  0  0  0
    6.3087   -8.5557   16.3594 C   0  0  0  0  0  0  0  0  0  0  0  0
    2.7341   -9.2892   16.5217 C   0  0  0  0  0  0  0  0  0  0  0  0
    0.3758  -10.7082   17.4482 N   0  0  0  0  0  0  0  0  0  0  0  0
    9.3088   -5.7383   17.7582 C   0  0  0  0  0  0  0  0  0  0  0  0
    7.9229   -6.6056   15.9415 C   0  0  0  0  0  0  0  0  0  0  0  0
   10.6735   -3.8104   17.4298 C   0  0  0  0  0  0  0  0  0  0  0  0
    6.8738   -7.3651   16.4956 N   0  0  0  0  0  0  0  0  0  0  0  0
   -0.6456  -11.3484   18.0831 O   0  0  0  0  0  0  0  0  0  0  0  0
   -0.2499  -11.7607   19.3505 C   0  0  0  0  0  0  0  0  0  0  0  0
   10.7419   -4.8468   19.6468 C   0  0  0  0  0  0  0  0  0  0  0  0
   10.2470   -4.7977   18.2642 C   0  0  0  0  0  0  0  0  0  0  0  0
    1.0430  -11.3551   19.4658 C   0  0  0  0  0  0  0  0  0  0  0  0
    1.0668  -12.2479   21.6491 C   0  0  0  0  0  0  0  0  0  0  0  0
   13.4199   -4.9596   22.1187 C   0  0  0  0  0  0  0  0  0  0  0  0
    9.3280   -4.6394   15.7053 C   0  0  0  0  0  0  0  0  0  0  0  0
    6.8808   -9.3332   15.8408 O   0  0  0  0  0  0  0  0  0  0  0  0
   12.9948   -4.2905   24.3969 C   0  0  0  0  0  0  0  0  0  0  0  0
    2.6815  -10.0602   17.6779 C   0  0  0  0  0  0  0  0  0  0  0  0
    3.8976   -8.7737   16.1396 C   0  0  0  0  0  0  0  0  0  0  0  0
    8.8754   -5.6268   16.4908 C   0  0  0  0  0  0  0  0  0  0  0  0
   -0.2585  -12.6792   21.5215 C   0  0  0  0  0  0  0  0  0  0  0  0
   -0.9452  -12.4414   20.3506 C   0  0  0  0  0  0  0  0  0  0  0  0
   10.2326   -3.7246   16.1576 C   0  0  0  0  0  0  0  0  0  0  0  0
    1.6979  -11.6097   20.6361 N   0  0  0  0  0  0  0  0  0  0  0  0
   11.8162   -4.3926   20.3261 C   0  0  0  0  0  0  0  0  0  0  0  0
  1 23  4  0
  1 26  4  0
  2 12  4  0
  2 21  4  0
  2 27  1  0
  3 13  1  0
  4  5  4  0
  4 27  4  0
  5  7  4  0
  6  9  4  0
  6 26  4  0
  7 10  1  0
  7 28  4  0
  8  9  4  0
  8 23  4  0
  8 34  1  0
 10 16  1  0
 10 25  2  0
 11 27  4  0
 11 28  4  0
 12 17  4  0
 13 20  4  0
 13 29  4  0
 14 16  1  0
 14 29  1  0
 15 20  4  0
 15 32  4  0
 17 18  4  0
 18 21  4  0
 18 31  4  0
 19 20  1  0
 19 34  1  0
 21 33  4  0
 22 30  4  0
 22 33  4  0
 24 29  4  0
 24 32  4  0
 30 31  4  0
M  END
$$$$

 Created by Python create_sdf_string function

 34 48  0  0  0  0  0  0  0  0999 V2000
    6.9486   -8.4787   15.1207 P   0  0  0  0  0  0  0  0  0  0  0  0
    4.4638   -9.9644   18.2986 C   0  0  0  0  0  0  0  0  0  0  0  0
   11.8625   -3.7677   23.5030 C   0  0  0  0  0  0  0  0  0  0  0  0
    2.9495   -9.9388   17.1198 C   0  0  0  0  0  0  0  0  0  0  0  0
    8.9145   -8.1643   15.9326 S   0  0  0  0  0  0  0  0  0  0  0  0
    8.5456   -7.1696   18.5989 N   0  0  0  0  0  0  0  0  0  0  0  0
    6.8854   -7.5787   17.2031 F   0  0  0  0  0  0  0  0  0  0  0  0
    5.7544   -7.7447   15.9816 O   0  0  0  0  0  0  0  0  0  0  0  0
    7.8722   -9.3774   16.2787 Cl  0  0  0  0  0  0  0  0  0  0  0  0
    0.8430  -12.2962   22.2696 C   0  0  0  0  0  0  0  0  0  0  0  0
    9.2832   -4.4789   16.4430 N   0  0  0  0  0  0  0  0  0  0  0  0
    7.3038   -7.7312   16.9483 N   0  0  0  0  0  0  0  0  0  0  0  0
    2.7963  -10.7075   18.1046 C   0  0  0  0  0  0  0  0  0  0  0  0
    3.4775   -8.7132   16.0126 C   0  0  0  0  0  0  0  0  0  0  0  0
   -0.3943  -12.5395   21.1075 O   0  0  0  0  0  0  0  0  0  0  0  0
    9.4564   -4.7284   17.3962 F   0  0  0  0  0  0  0  0  0  0  0  0
    7.8625   -9.2785   17.6476 O   0  0  0  0  0  0  0  0  0  0  0  0
   13.5418   -4.3782   23.0543 He  0  0  0  0  0  0  0  0  0  0  0  0
    7.6811   -7.4134   16.7831 He  0  0  0  0  0  0  0  0  0  0  0  0
    6.0105  -10.2566   15.5713 He  0  0  0  0  0  0  0  0  0  0  0  0
    7.1939   -8.5201   18.2634 He  0  0  0  0  0  0  0  0  0  0  0  0
    8.4407   -8.9333   17.7755 He  0  0  0  0  0  0  0  0  0  0  0  0
    4.8638   -8.5277   16.8166 He  0  0  0  0  0  0  0  0  0  0  0  0
    6.7727   -6.6117   16.8328 He  0  0  0  0  0  0  0  0  0  0  0  0
    8.2023   -8.3153   17.1096 He  0  0  0  0  0  0  0  0  0  0  0  0
    5.9921   -7.8294   18.2980 He  0  0  0  0  0  0  0  0  0  0  0  0
    5.9913   -9.2902   16.6700 He  0  0  0  0  0  0  0  0  0  0  0  0
    7.6583  -10.4644   18.4773 He  0  0  0  0  0  0  0  0  0  0  0  0
    7.2780   -7.4316   18.2310 He  0  0  0  0  0  0  0  0  0  0  0  0
   10.9042   -8.1917   17.0453 He  0  0  0  0  0  0  0  0  0  0  0  0
   12.6900   -4.8430   24.3439 He  0  0  0  0  0  0  0  0  0  0  0  0
    8.5305   -7.5089   17.7235 He  0  0  0  0  0  0  0  0  0  0  0  0
    8.3331   -8.7269   16.6222 He  0  0  0  0  0  0  0  0  0  0  0  0
    1.5473  -12.0107   20.8642 He  0  0  0  0  0  0  0  0  0  0  0  0
  1  2  2  0
  1  4  4  0
  1  5  3  0
  1  8  2  0
  1 10  3  0
  2  4  1  0
  2  5  2  0
  2  9  3  0
  2 13  4  0
  2 14  1  0
  2 15  2  0
  2 17  3  0
  3  5  1  0
  3  7  2  0
  3  9  2  0
  3 11  1  0
  3 14  3  0
  4  6  1  0
  4  8  2  0
  4  9  1  0
  4 12  3  0
  4 13  4  0
  4 14  4  0
  5  6  3  0
  5 11  4  0
  5 13  1  0
  6 10  2  0
  6 12  3  0
  6 14  3  0
  7 10  2  0
  7 12  2  0
  7 13  3  0
  7 15  2  0
  7 17  2  0
  8 10  4  0
  8 13  3  0
  8 14  1  0
  8 16  1  0
  9 11  1  0
  9 14  2  0
  9 16  1  0
 10 13  2  0
 10 15  4  0
 10 16  3  0
 11 12  3  0
 11 16  4  0
 13 17  1  0
 15 17  4  0
M  END
$$$$

 Created by Python create_sdf_string function

 34  9  0  0  0  0  0  0  0  0999 V2000
   11.7244   -4.7610   21.8806 C   0  0  0  0  0  0  0  0  0  0  0  0
    6.6917   -8.4747   15.4313 F   0  0  0  0  0  0  0  0  0  0  0  0
    8.0417   -6.5748   16.6783 F   0  0  0  0  0  0  0  0  0  0  0  0
    3.6062  -10.7324   18.5863 C   0  0  0  0  0  0  0  0  0  0  0  0
    5.7638   -9.8145   15.8284 F   0  0  0  0  0  0  0  0  0  0  0  0
   11.2830   -4.6099   22.0094 C   0  0  0  0  0  0  0  0  0  0  0  0
    6.8375   -8.1433   18.4490 F   0  0  0  0  0  0  0  0  0  0  0  0
    8.8371   -8.0062   18.2197 F   0  0  0  0  0  0  0  0  0  0  0  0
    4.0623   -9.3196   17.2245 C   0  0  0  0  0  0  0  0  0  0  0  0
    6.9902   -6.3231   16.3975 F   0  0  0  0  0  0  0  0  0  0  0  0
    2.5799  -10.3168   17.9271 C   0  0  0  0  0  0  0  0  0  0  0  0
    8.4176   -7.7291   17.2702 F   0  0  0  0  0  0  0  0  0  0  0  0
    5.6027   -7.8891   18.2526 F   0  0  0  0  0  0  0  0  0  0  0  0
    4.9816   -9.5824   17.1524 C   0  0  0  0  0  0  0  0  0  0  0  0
    7.0654   -9.2753   18.2738 F   0  0  0  0  0  0  0  0  0  0  0  0
    8.7148   -7.7426   15.9210 F   0  0  0  0  0  0  0  0  0  0  0  0
   10.1916   -5.7540   19.6523 C   0  0  0  0  0  0  0  0  0  0  0  0
    7.9362   -6.8122   18.3157 F   0  0  0  0  0  0  0  0  0  0  0  0
    6.5093   -7.2259   17.2001 F   0  0  0  0  0  0  0  0  0  0  0  0
    5.2587   -7.6620   16.1014 F   0  0  0  0  0  0  0  0  0  0  0  0
    7.5132   -9.0263   15.7639 F   0  0  0  0  0  0  0  0  0  0  0  0
    1.3233  -11.9485   20.7730 C   0  0  0  0  0  0  0  0  0  0  0  0
   10.2635   -6.9646   18.3526 F   0  0  0  0  0  0  0  0  0  0  0  0
    9.1895   -4.8512   16.5487 F   0  0  0  0  0  0  0  0  0  0  0  0
    7.2484   -7.3059   16.8638 F   0  0  0  0  0  0  0  0  0  0  0  0
   11.6463   -4.8373   22.9095 C   0  0  0  0  0  0  0  0  0  0  0  0
    2.5485  -10.9298   18.7106 C   0  0  0  0  0  0  0  0  0  0  0  0
    3.3163   -9.3404   16.7803 C   0  0  0  0  0  0  0  0  0  0  0  0
    9.3991   -6.4537   18.5812 C   0  0  0  0  0  0  0  0  0  0  0  0
    0.6560  -11.9387   20.3656 O   0  0  0  0  0  0  0  0  0  0  0  0
    8.2611   -8.3613   16.3781 F   0  0  0  0  0  0  0  0  0  0  0  0
    9.7488   -4.8871   17.7263 C   0  0  0  0  0  0  0  0  0  0  0  0
    1.7456  -11.7702   20.0066 C   0  0  0  0  0  0  0  0  0  0  0  0
    7.7412   -8.7327   17.5360 F   0  0  0  0  0  0  0  0  0  0  0  0
  1  6  1  0
  1 26  1  0
  4 27  4  0
  6 26  1  0
  9 28  4  0
 11 27  4  0
 11 28  4  0
 22 30  1  0
 22 33  1  0
M  END
$$$$

 Created by Python create_sdf_string function

 34111  0  0  0  0  0  0  0  0999 V2000
   11.9798   -4.5254   21.4284 C   0  0  0  0  0  0  0  0  0  0  0  0
    7.0735   -8.3368   15.4904 O   0  0  0  0  0  0  0  0  0  0  0  0
    3.9017  -10.5571   19.1109 C   0  0  0  0  0  0  0  0  0  0  0  0
    4.9891  -11.8156   16.5895 C   0  0  0  0  0  0  0  0  0  0  0  0
   11.4139   -4.2543   22.5115 S   0  0  0  0  0  0  0  0  0  0  0  0
    6.9250  -10.1904   19.7857 Br  0  0  0  0  0  0  0  0  0  0  0  0
    8.7343   -6.8894   18.8877 N   0  0  0  0  0  0  0  0  0  0  0  0
    6.0060   -6.6570   16.8321 F   0  0  0  0  0  0  0  0  0  0  0  0
    1.9981  -10.5808   18.3792 C   0  0  0  0  0  0  0  0  0  0  0  0
    8.6128   -7.7756   17.3637 P   0  0  0  0  0  0  0  0  0  0  0  0
    5.4483   -9.6885   16.3367 F   0  0  0  0  0  0  0  0  0  0  0  0
    6.4287  -10.6541   19.1748 I   0  0  0  0  0  0  0  0  0  0  0  0
    7.7359   -8.6721   16.0771 N   0  0  0  0  0  0  0  0  0  0  0  0
   11.0326   -5.1791   19.1721 S   0  0  0  0  0  0  0  0  0  0  0  0
    8.2838   -6.7468   19.2052 C   0  0  0  0  0  0  0  0  0  0  0  0
   10.4598   -7.7935   18.1783 C   0  0  0  0  0  0  0  0  0  0  0  0
    8.9551   -5.0114   17.0377 O   0  0  0  0  0  0  0  0  0  0  0  0
   11.6581   -5.0182   23.3669 C   0  0  0  0  0  0  0  0  0  0  0  0
    1.7516  -10.7425   18.3989 C   0  0  0  0  0  0  0  0  0  0  0  0
    3.4151   -9.6288   17.0498 C   0  0  0  0  0  0  0  0  0  0  0  0
    0.4306  -12.0124   20.5954 N   0  0  0  0  0  0  0  0  0  0  0  0
    7.1201   -8.3611   16.4396 S   0  0  0  0  0  0  0  0  0  0  0  0
    9.2050   -4.5671   17.3072 C   0  0  0  0  0  0  0  0  0  0  0  0
    1.5546  -11.7621   20.1434 C   0  0  0  0  0  0  0  0  0  0  0  0
    7.7395   -6.4362   17.0916 He  0  0  0  0  0  0  0  0  0  0  0  0
    5.5909   -8.9997   18.4836 He  0  0  0  0  0  0  0  0  0  0  0  0
    4.9268   -7.0359   19.3488 He  0  0  0  0  0  0  0  0  0  0  0  0
    7.1865   -5.8480   17.9335 He  0  0  0  0  0  0  0  0  0  0  0  0
    5.8782   -7.2994   18.0775 He  0  0  0  0  0  0  0  0  0  0  0  0
    8.3252   -7.3073   16.0776 He  0  0  0  0  0  0  0  0  0  0  0  0
    1.4480  -11.6506   20.9043 He  0  0  0  0  0  0  0  0  0  0  0  0
    6.6800   -6.1559   16.5539 He  0  0  0  0  0  0  0  0  0  0  0  0
    7.7353   -5.4884   17.1495 He  0  0  0  0  0  0  0  0  0  0  0  0
    5.8033   -6.7925   16.5715 He  0  0  0  0  0  0  0  0  0  0  0  0
  1  2  3  0
  1  4  2  0
  1  5  1  0
  1  8  1  0
  1  9  2  0
  1 12  4  0
  1 13  4  0
  1 18  1  0
  1 22  4  0
  2  4  3  0
  2  5  2  0
  2  6  2  0
  2  7  2  0
  2 10  3  0
  2 12  4  0
  2 13  4  0
  2 14  2  0
  2 16  2  0
  2 17  2  0
  2 19  4  0
  2 22  1  0
  2 24  2  0
  3  4  2  0
  3  8  4  0
  3 11  1  0
  3 12  2  0
  3 15  3  0
  3 16  3  0
  3 22  4  0
  4  5  4  0
  4  7  2  0
  4  8  3  0
  4 10  3  0
  4 11  1  0
  4 13  3  0
  4 14  2  0
  4 15  4  0
  4 17  2  0
  4 19  4  0
  4 21  1  0
  4 22  4  0
  5  8  2  0
  5  9  2  0
  5 11  1  0
  5 12  3  0
  5 14  1  0
  5 17  4  0
  5 18  1  0
  5 22  3  0
  5 23  3  0
  6 10  1  0
  6 11  4  0
  6 13  3  0
  6 15  3  0
  6 16  3  0
  6 20  3  0
  6 22  1  0
  7  8  2  0
  7  9  2  0
  7 10  1  0
  7 12  4  0
  7 17  4  0
  7 18  1  0
  7 19  4  0
  7 22  1  0
  7 23  2  0
  7 24  1  0
  8  9  4  0
  8 14  3  0
  8 16  2  0
  8 18  3  0
  8 19  4  0
  9 13  1  0
  9 15  1  0
  9 19  4  0
  9 23  3  0
  9 24  3  0
 10 12  3  0
 10 14  1  0
 10 16  4  0
 10 18  1  0
 10 19  2  0
 10 24  4  0
 11 20  3  0
 11 24  3  0
 12 14  4  0
 12 15  2  0
 12 20  4  0
 12 23  3  0
 13 15  3  0
 13 16  3  0
 13 18  1  0
 13 19  2  0
 13 24  4  0
 14 15  1  0
 14 18  2  0
 14 22  4  0
 15 18  1  0
 15 19  1  0
 16 17  3  0
 16 20  3  0
 16 21  2  0
 16 23  2  0
 17 18  4  0
 18 21  4  0
 19 21  1  0
 19 22  4  0
 19 24  4  0
 22 23  1  0
 22 24  4  0
 23 24  2  0
M  END
$$$$

 Created by Python create_sdf_string function

 34  9  0  0  0  0  0  0  0  0999 V2000
   11.4243   -4.7402   21.3170 C   0  0  0  0  0  0  0  0  0  0  0  0
    7.2283   -8.6947   15.6623 F   0  0  0  0  0  0  0  0  0  0  0  0
    8.1433   -6.4921   16.9426 C   0  0  0  0  0  0  0  0  0  0  0  0
    3.5748  -10.8260   18.6442 C   0  0  0  0  0  0  0  0  0  0  0  0
    4.7036  -10.3724   17.3820 C   0  0  0  0  0  0  0  0  0  0  0  0
   11.1783   -4.4111   21.7372 C   0  0  0  0  0  0  0  0  0  0  0  0
    6.1746   -8.9873   19.1845 F   0  0  0  0  0  0  0  0  0  0  0  0
    9.7175   -6.4126   18.8720 C   0  0  0  0  0  0  0  0  0  0  0  0
    5.1264   -9.4366   17.9929 C   0  0  0  0  0  0  0  0  0  0  0  0
    5.9537   -6.9843   16.4792 F   0  0  0  0  0  0  0  0  0  0  0  0
    2.0557  -10.7945   18.3711 C   0  0  0  0  0  0  0  0  0  0  0  0
    8.8855   -7.7787   17.6308 F   0  0  0  0  0  0  0  0  0  0  0  0
    5.7699   -7.3492   18.6822 F   0  0  0  0  0  0  0  0  0  0  0  0
    5.3904   -9.6380   16.4725 F   0  0  0  0  0  0  0  0  0  0  0  0
    5.3104   -9.8178   18.4311 C   0  0  0  0  0  0  0  0  0  0  0  0
    7.7831   -8.6819   15.8800 F   0  0  0  0  0  0  0  0  0  0  0  0
   10.7722   -4.8394   19.8305 C   0  0  0  0  0  0  0  0  0  0  0  0
    9.6628   -6.1336   19.0761 C   0  0  0  0  0  0  0  0  0  0  0  0
    8.1390   -6.1744   17.9835 C   0  0  0  0  0  0  0  0  0  0  0  0
    5.9477   -7.5738   17.9250 C   0  0  0  0  0  0  0  0  0  0  0  0
    8.4186   -7.3446   15.8606 F   0  0  0  0  0  0  0  0  0  0  0  0
    1.5732  -11.7675   20.5171 C   0  0  0  0  0  0  0  0  0  0  0  0
   10.0424   -7.1521   18.6298 C   0  0  0  0  0  0  0  0  0  0  0  0
    9.3762   -4.7168   16.9336 O   0  0  0  0  0  0  0  0  0  0  0  0
    6.9077   -6.3589   15.9106 F   0  0  0  0  0  0  0  0  0  0  0  0
   11.3959   -4.8077   22.7602 C   0  0  0  0  0  0  0  0  0  0  0  0
    1.7427  -11.0514   18.5347 C   0  0  0  0  0  0  0  0  0  0  0  0
    3.3892   -9.8949   17.3251 C   0  0  0  0  0  0  0  0  0  0  0  0
    8.6220   -5.4428   16.8456 C   0  0  0  0  0  0  0  0  0  0  0  0
    0.5497  -11.9948   20.3847 C   0  0  0  0  0  0  0  0  0  0  0  0
    6.9974   -8.6506   16.4510 C   0  0  0  0  0  0  0  0  0  0  0  0
    9.7711   -4.5108   17.4989 C   0  0  0  0  0  0  0  0  0  0  0  0
    1.8383  -11.6352   19.8916 C   0  0  0  0  0  0  0  0  0  0  0  0
    5.6768   -7.2231   16.3316 F   0  0  0  0  0  0  0  0  0  0  0  0
  1  6  1  0
  1 26  1  0
  2 31  1  0
  6 26  1  0
 11 27  4  0
 13 20  1  0
 22 30  4  0
 22 33  4  0
 27 33  4  0
M  END
$$$$

 Created by Python create_sdf_string function

 34 82  0  0  0  0  0  0  0  0999 V2000
   11.3897   -4.0921   21.4688 C   0  0  0  0  0  0  0  0  0  0  0  0
    8.2513   -5.1903   18.0361 C   0  0  0  0  0  0  0  0  0  0  0  0
    3.6679  -10.6019   18.7715 C   0  0  0  0  0  0  0  0  0  0  0  0
    3.7440  -10.4395   16.8257 N   0  0  0  0  0  0  0  0  0  0  0  0
    6.6163   -7.7870   18.0431 F   0  0  0  0  0  0  0  0  0  0  0  0
    8.8628   -5.2168   19.0799 Cl  0  0  0  0  0  0  0  0  0  0  0  0
    1.8588  -11.0073   18.3003 C   0  0  0  0  0  0  0  0  0  0  0  0
    5.2741   -9.4097   15.7757 S   0  0  0  0  0  0  0  0  0  0  0  0
    4.6033   -9.5850   19.6457 S   0  0  0  0  0  0  0  0  0  0  0  0
    6.5504   -8.2722   14.8669 N   0  0  0  0  0  0  0  0  0  0  0  0
   12.3459   -5.8487   19.6680 N   0  0  0  0  0  0  0  0  0  0  0  0
    7.3273   -5.6431   19.3767 P   0  0  0  0  0  0  0  0  0  0  0  0
    6.8647   -7.7959   18.0540 O   0  0  0  0  0  0  0  0  0  0  0  0
    7.4377   -7.2701   16.3834 F   0  0  0  0  0  0  0  0  0  0  0  0
    1.2683  -11.4880   20.2787 C   0  0  0  0  0  0  0  0  0  0  0  0
    8.4711   -6.8985   17.0980 F   0  0  0  0  0  0  0  0  0  0  0  0
    1.9052  -11.6423   18.3222 N   0  0  0  0  0  0  0  0  0  0  0  0
    9.0538   -5.3348   15.8451 O   0  0  0  0  0  0  0  0  0  0  0  0
    1.2322  -12.7823   20.1462 C   0  0  0  0  0  0  0  0  0  0  0  0
    9.8569   -4.3261   17.3377 C   0  0  0  0  0  0  0  0  0  0  0  0
    5.5082   -8.7753   14.7811 Cl  0  0  0  0  0  0  0  0  0  0  0  0
    8.4799   -9.4700   16.3213 He  0  0  0  0  0  0  0  0  0  0  0  0
   10.6611   -4.7985   21.5518 He  0  0  0  0  0  0  0  0  0  0  0  0
    4.8357   -8.8926   18.0057 He  0  0  0  0  0  0  0  0  0  0  0  0
    7.0172   -6.5904   17.0074 He  0  0  0  0  0  0  0  0  0  0  0  0
   10.5752   -7.1640   17.7056 He  0  0  0  0  0  0  0  0  0  0  0  0
    4.5595   -6.5385   20.0399 He  0  0  0  0  0  0  0  0  0  0  0  0
    8.6292   -6.5805   19.9001 He  0  0  0  0  0  0  0  0  0  0  0  0
    9.3689   -9.2443   18.0490 He  0  0  0  0  0  0  0  0  0  0  0  0
   10.1153   -4.4864   16.6515 He  0  0  0  0  0  0  0  0  0  0  0  0
   10.3759   -5.1571   23.5678 He  0  0  0  0  0  0  0  0  0  0  0  0
    2.9688  -10.2754   17.3551 He  0  0  0  0  0  0  0  0  0  0  0  0
    7.8351   -9.0386   16.8731 He  0  0  0  0  0  0  0  0  0  0  0  0
    1.4928  -12.1174   19.4526 He  0  0  0  0  0  0  0  0  0  0  0  0
  1 10  4  0
  1 13  1  0
  1 16  3  0
  1 18  1  0
  1 21  2  0
  2  3  3  0
  2 11  4  0
  2 14  3  0
  2 15  3  0
  2 16  3  0
  2 17  1  0
  2 18  1  0
  2 19  3  0
  3  4  4  0
  3 10  1  0
  3 12  3  0
  4  7  4  0
  4 12  4  0
  4 13  1  0
  4 14  2  0
  4 16  3  0
  4 17  4  0
  4 21  3  0
  5  6  2  0
  5  8  2  0
  5 10  2  0
  5 11  4  0
  5 12  4  0
  5 15  1  0
  5 16  1  0
  6  7  2  0
  6  9  3  0
  6 12  2  0
  6 17  2  0
  6 19  4  0
  6 21  2  0
  7  8  3  0
  7  9  2  0
  7 10  1  0
  7 12  3  0
  7 14  2  0
  7 17  4  0
  7 18  4  0
  8 13  4  0
  8 14  4  0
  8 16  4  0
  8 18  3  0
  8 21  1  0
  9 10  3  0
  9 15  4  0
  9 16  2  0
  9 17  1  0
  9 19  3  0
 10 12  4  0
 10 14  3  0
 10 15  2  0
 10 17  3  0
 11 12  1  0
 11 13  4  0
 11 14  3  0
 11 15  4  0
 11 17  4  0
 11 18  1  0
 11 19  1  0
 11 20  3  0
 12 15  2  0
 12 16  3  0
 12 17  2  0
 13 14  2  0
 13 17  1  0
 13 18  4  0
 13 19  1  0
 14 16  4  0
 14 19  2  0
 15 19  4  0
 15 21  4  0
 16 17  2  0
 16 21  1  0
 17 19  3  0
 18 21  3  0
 19 21  3  0
 20 21  1  0
M  END
$$$$

 Created by Python create_sdf_string function

 34 12  0  0  0  0  0  0  0  0999 V2000
   11.1952   -4.4614   21.4284 C   0  0  0  0  0  0  0  0  0  0  0  0
    8.2409   -8.4371   15.9944 F   0  0  0  0  0  0  0  0  0  0  0  0
    9.3313   -5.4409   18.1550 C   0  0  0  0  0  0  0  0  0  0  0  0
    3.5308  -10.6355   18.6554 C   0  0  0  0  0  0  0  0  0  0  0  0
    3.1639   -9.9395   17.2096 C   0  0  0  0  0  0  0  0  0  0  0  0
   10.6530   -4.8014   21.3230 C   0  0  0  0  0  0  0  0  0  0  0  0
    6.5272   -7.8230   17.7764 F   0  0  0  0  0  0  0  0  0  0  0  0
    9.7493   -5.0325   19.2134 C   0  0  0  0  0  0  0  0  0  0  0  0
    4.8205   -9.2849   17.7234 C   0  0  0  0  0  0  0  0  0  0  0  0
    7.0432   -6.7407   16.7764 F   0  0  0  0  0  0  0  0  0  0  0  0
    2.1120  -11.0390   18.3795 C   0  0  0  0  0  0  0  0  0  0  0  0
    9.9801   -6.6934   18.0838 C   0  0  0  0  0  0  0  0  0  0  0  0
    5.8402   -7.3862   19.1191 F   0  0  0  0  0  0  0  0  0  0  0  0
    5.1301   -9.0612   16.0221 C   0  0  0  0  0  0  0  0  0  0  0  0
    4.5716   -9.9379   18.5549 C   0  0  0  0  0  0  0  0  0  0  0  0
    6.6130   -8.4243   15.5187 F   0  0  0  0  0  0  0  0  0  0  0  0
   11.4860   -5.3071   19.7050 C   0  0  0  0  0  0  0  0  0  0  0  0
    9.6938   -5.9611   19.4851 C   0  0  0  0  0  0  0  0  0  0  0  0
    8.2946   -5.8625   19.0533 C   0  0  0  0  0  0  0  0  0  0  0  0
    6.8682   -7.8242   17.8062 C   0  0  0  0  0  0  0  0  0  0  0  0
    7.4712   -7.2490   16.2715 F   0  0  0  0  0  0  0  0  0  0  0  0
    1.4078  -11.7187   20.3300 C   0  0  0  0  0  0  0  0  0  0  0  0
    9.0495   -8.1687   17.7516 F   0  0  0  0  0  0  0  0  0  0  0  0
   10.0950   -4.3822   16.6115 C   0  0  0  0  0  0  0  0  0  0  0  0
    8.5922   -6.7601   17.1135 C   0  0  0  0  0  0  0  0  0  0  0  0
   10.9108   -4.5671   22.5180 O   0  0  0  0  0  0  0  0  0  0  0  0
    1.5863  -11.3918   18.5671 N   0  0  0  0  0  0  0  0  0  0  0  0
    3.0026   -9.8982   17.0839 C   0  0  0  0  0  0  0  0  0  0  0  0
    9.0136   -5.0104   16.1435 C   0  0  0  0  0  0  0  0  0  0  0  0
    1.2993  -12.4690   20.0578 C   0  0  0  0  0  0  0  0  0  0  0  0
    7.6450   -8.5367   16.5987 C   0  0  0  0  0  0  0  0  0  0  0  0
   10.1485   -4.2113   17.4614 C   0  0  0  0  0  0  0  0  0  0  0  0
    1.4406  -11.7754   19.5531 C   0  0  0  0  0  0  0  0  0  0  0  0
    5.4335   -8.8103   15.4268 C   0  0  0  0  0  0  0  0  0  0  0  0
  1  6  1  0
  1 26  1  0
  2 31  1  0
  4 15  4  0
  5 28  4  0
  9 15  4  0
 11 27  4  0
 14 34  1  0
 22 30  4  0
 22 33  4  0
 24 32  1  0
 27 33  4  0
M  END
$$$$

 Created by Python create_sdf_string function

 34 85  0  0  0  0  0  0  0  0999 V2000
   11.7707   -4.5999   21.4965 C   0  0  0  0  0  0  0  0  0  0  0  0
    7.7165   -9.3206   15.1948 F   0  0  0  0  0  0  0  0  0  0  0  0
    9.7021   -3.9506   16.0125 N   0  0  0  0  0  0  0  0  0  0  0  0
    3.1057  -11.4275   17.9272 C   0  0  0  0  0  0  0  0  0  0  0  0
   11.0052   -4.5298   21.4935 C   0  0  0  0  0  0  0  0  0  0  0  0
   10.3061   -4.5140   19.6508 S   0  0  0  0  0  0  0  0  0  0  0  0
    4.9378   -9.6592   17.8797 N   0  0  0  0  0  0  0  0  0  0  0  0
    2.0199  -11.4387   18.7027 C   0  0  0  0  0  0  0  0  0  0  0  0
    8.2002   -7.6114   17.6219 N   0  0  0  0  0  0  0  0  0  0  0  0
    6.4073   -9.0108   15.1147 C   0  0  0  0  0  0  0  0  0  0  0  0
    7.3643   -8.7714   15.9880 N   0  0  0  0  0  0  0  0  0  0  0  0
    7.2238   -5.1612   18.2796 F   0  0  0  0  0  0  0  0  0  0  0  0
    7.9249   -8.7317   17.0559 P   0  0  0  0  0  0  0  0  0  0  0  0
    0.9488  -11.3781   20.3915 C   0  0  0  0  0  0  0  0  0  0  0  0
   10.9222   -8.0805   17.7625 C   0  0  0  0  0  0  0  0  0  0  0  0
   10.3813   -4.7906   16.7408 C   0  0  0  0  0  0  0  0  0  0  0  0
    8.7426   -6.3503   17.8972 O   0  0  0  0  0  0  0  0  0  0  0  0
   10.6281   -5.3760   21.7591 O   0  0  0  0  0  0  0  0  0  0  0  0
    1.9320  -11.9995   19.2027 N   0  0  0  0  0  0  0  0  0  0  0  0
    3.0632   -9.0677   17.5005 O   0  0  0  0  0  0  0  0  0  0  0  0
    1.3103  -12.4119   19.8483 C   0  0  0  0  0  0  0  0  0  0  0  0
   10.0651   -4.6356   17.6883 C   0  0  0  0  0  0  0  0  0  0  0  0
    2.5841  -12.6744   17.9501 He  0  0  0  0  0  0  0  0  0  0  0  0
    6.0903   -7.9589   18.3413 He  0  0  0  0  0  0  0  0  0  0  0  0
    8.4769   -6.3245   17.2233 He  0  0  0  0  0  0  0  0  0  0  0  0
    7.2612   -6.5806   20.1553 He  0  0  0  0  0  0  0  0  0  0  0  0
    3.3979  -10.4755   19.1424 He  0  0  0  0  0  0  0  0  0  0  0  0
   10.6820   -6.3194   19.4747 He  0  0  0  0  0  0  0  0  0  0  0  0
    9.7148   -5.2134   18.8905 He  0  0  0  0  0  0  0  0  0  0  0  0
    6.2648   -6.3685   16.4041 He  0  0  0  0  0  0  0  0  0  0  0  0
    9.1232   -6.4846   15.4914 He  0  0  0  0  0  0  0  0  0  0  0  0
    6.0705   -8.0767   16.2169 He  0  0  0  0  0  0  0  0  0  0  0  0
    1.9794  -11.4595   19.4798 He  0  0  0  0  0  0  0  0  0  0  0  0
    5.0480   -8.0949   15.5966 He  0  0  0  0  0  0  0  0  0  0  0  0
  1  2  1  0
  1  3  3  0
  1  4  3  0
  1  5  1  0
  1  6  1  0
  1 11  3  0
  1 18  1  0
  2  3  4  0
  2  4  3  0
  2  9  2  0
  2 14  3  0
  2 15  2  0
  2 17  3  0
  2 19  1  0
  2 20  3  0
  3  5  2  0
  3  6  4  0
  3 11  1  0
  3 12  4  0
  3 16  2  0
  3 20  2  0
  3 21  2  0
  4  6  3  0
  4 10  1  0
  4 12  2  0
  4 14  1  0
  4 21  4  0
  5  6  2  0
  5  7  4  0
  5 10  4  0
  6  9  3  0
  6 10  1  0
  6 11  1  0
  6 13  3  0
  6 14  1  0
  6 19  4  0
  6 21  1  0
  7  8  2  0
  7  9  2  0
  7 14  3  0
  7 17  3  0
  7 18  1  0
  7 20  1  0
  7 21  4  0
  7 22  3  0
  8 10  2  0
  8 12  1  0
  8 13  2  0
  8 15  2  0
  8 19  4  0
  8 20  1  0
  9 10  1  0
  9 11  2  0
  9 12  1  0
  9 13  2  0
  9 14  3  0
  9 15  3  0
  9 16  3  0
  9 18  3  0
  9 19  2  0
  9 20  3  0
  9 22  1  0
 10 11  3  0
 10 19  3  0
 10 20  1  0
 10 22  1  0
 11 14  1  0
 11 16  4  0
 11 17  1  0
 11 18  3  0
 11 20  2  0
 11 22  4  0
 12 14  3  0
 12 18  1  0
 12 19  1  0
 12 21  4  0
 13 14  2  0
 13 19  4  0
 14 15  2  0
 14 17  3  0
 15 18  2  0
 15 20  4  0
 15 21  3  0
 17 20  4  0
 18 20  1  0
M  END
$$$$

 Created by Python create_sdf_string function

 34 11  0  0  0  0  0  0  0  0999 V2000
   11.4066   -4.5561   21.4292 C   0  0  0  0  0  0  0  0  0  0  0  0
    7.7450   -8.6985   15.4355 F   0  0  0  0  0  0  0  0  0  0  0  0
    9.7194   -4.1194   16.1237 C   0  0  0  0  0  0  0  0  0  0  0  0
    3.2262  -11.0962   18.2054 C   0  0  0  0  0  0  0  0  0  0  0  0
    2.4616  -12.0338   18.7105 C   0  0  0  0  0  0  0  0  0  0  0  0
   10.9680   -4.1626   21.5780 C   0  0  0  0  0  0  0  0  0  0  0  0
    6.0953   -8.1374   18.0073 C   0  0  0  0  0  0  0  0  0  0  0  0
   10.6109   -4.4004   19.8745 C   0  0  0  0  0  0  0  0  0  0  0  0
    4.5557   -9.4325   17.6053 C   0  0  0  0  0  0  0  0  0  0  0  0
    8.7300   -6.2676   17.2289 C   0  0  0  0  0  0  0  0  0  0  0  0
    2.2749  -11.2465   18.7701 C   0  0  0  0  0  0  0  0  0  0  0  0
    8.1323   -7.5758   17.5082 C   0  0  0  0  0  0  0  0  0  0  0  0
    7.4362   -6.6500   18.9470 F   0  0  0  0  0  0  0  0  0  0  0  0
    6.3575   -8.9729   15.7721 C   0  0  0  0  0  0  0  0  0  0  0  0
    3.7296  -10.5430   18.3311 C   0  0  0  0  0  0  0  0  0  0  0  0
    7.2943   -8.5267   16.1063 C   0  0  0  0  0  0  0  0  0  0  0  0
   10.3881   -5.8776   19.5559 C   0  0  0  0  0  0  0  0  0  0  0  0
   10.0646   -5.0449   19.0691 C   0  0  0  0  0  0  0  0  0  0  0  0
    7.7976   -6.1469   18.1344 C   0  0  0  0  0  0  0  0  0  0  0  0
    7.7996   -8.3760   17.1250 C   0  0  0  0  0  0  0  0  0  0  0  0
    6.3623   -6.8528   16.3430 F   0  0  0  0  0  0  0  0  0  0  0  0
    0.9217  -11.6034   20.7306 C   0  0  0  0  0  0  0  0  0  0  0  0
    9.7812   -7.6005   18.1190 F   0  0  0  0  0  0  0  0  0  0  0  0
   10.0983   -4.4570   16.7130 C   0  0  0  0  0  0  0  0  0  0  0  0
    9.0251   -6.3166   17.9457 C   0  0  0  0  0  0  0  0  0  0  0  0
   11.0183   -5.0657   21.5189 O   0  0  0  0  0  0  0  0  0  0  0  0
    1.8587  -11.7454   19.3005 C   0  0  0  0  0  0  0  0  0  0  0  0
    3.2335   -9.3397   17.1652 C   0  0  0  0  0  0  0  0  0  0  0  0
    8.7990   -6.3442   15.9643 F   0  0  0  0  0  0  0  0  0  0  0  0
    1.0073  -12.3016   19.8538 C   0  0  0  0  0  0  0  0  0  0  0  0
    5.6556   -8.3325   16.4071 C   0  0  0  0  0  0  0  0  0  0  0  0
   10.2522   -4.3809   17.7192 C   0  0  0  0  0  0  0  0  0  0  0  0
    1.5831  -11.5007   20.0351 C   0  0  0  0  0  0  0  0  0  0  0  0
    4.8895   -8.4984   16.3802 C   0  0  0  0  0  0  0  0  0  0  0  0
  1  6  1  0
  1 26  1  0
  4  5  4  0
  4 11  4  0
  5 30  4  0
 11 27  4  0
 22 30  4  0
 22 33  4  0
 24 32  4  0
 27 33  4  0
 31 34  1  0
M  END
$$$$

 Created by Python create_sdf_string function

 34 81  0  0  0  0  0  0  0  0999 V2000
    8.1290   -9.1466   17.2992 O   0  0  0  0  0  0  0  0  0  0  0  0
    8.7666   -5.3222   16.5487 Br  0  0  0  0  0  0  0  0  0  0  0  0
    2.8117  -10.4015   18.3716 O   0  0  0  0  0  0  0  0  0  0  0  0
    4.4511   -9.9112   17.6093 F   0  0  0  0  0  0  0  0  0  0  0  0
    2.1268  -11.2565   18.7595 C   0  0  0  0  0  0  0  0  0  0  0  0
    7.5447   -6.5648   15.8943 F   0  0  0  0  0  0  0  0  0  0  0  0
    7.7408   -7.7105   20.3489 C   0  0  0  0  0  0  0  0  0  0  0  0
    6.7740   -7.7962   15.1683 O   0  0  0  0  0  0  0  0  0  0  0  0
    8.7735   -6.5618   14.1519 Se  0  0  0  0  0  0  0  0  0  0  0  0
    8.1149   -6.2699   19.1663 N   0  0  0  0  0  0  0  0  0  0  0  0
    6.4338   -8.4717   17.4894 S   0  0  0  0  0  0  0  0  0  0  0  0
    0.9691  -11.6552   21.3004 C   0  0  0  0  0  0  0  0  0  0  0  0
   10.1864   -4.0287   16.6488 C   0  0  0  0  0  0  0  0  0  0  0  0
    8.0122   -5.4427   16.9205 C   0  0  0  0  0  0  0  0  0  0  0  0
    1.8737  -11.6836   19.6773 C   0  0  0  0  0  0  0  0  0  0  0  0
    3.1354   -9.3835   17.0661 C   0  0  0  0  0  0  0  0  0  0  0  0
    0.8187  -12.2056   19.3726 C   0  0  0  0  0  0  0  0  0  0  0  0
    5.1390   -9.0556   17.2927 O   0  0  0  0  0  0  0  0  0  0  0  0
   11.0382   -4.3756   18.3394 C   0  0  0  0  0  0  0  0  0  0  0  0
    1.0551  -11.2880   20.3164 C   0  0  0  0  0  0  0  0  0  0  0  0
    5.2082   -8.5852   15.3767 B   0  0  0  0  0  0  0  0  0  0  0  0
   11.0929   -3.9178   21.7837 He  0  0  0  0  0  0  0  0  0  0  0  0
    4.3768  -12.9005   18.6154 He  0  0  0  0  0  0  0  0  0  0  0  0
   11.3228   -3.9695   21.3631 He  0  0  0  0  0  0  0  0  0  0  0  0
    6.1774   -7.5037   18.6055 He  0  0  0  0  0  0  0  0  0  0  0  0
    9.6462   -4.2855   19.6009 He  0  0  0  0  0  0  0  0  0  0  0  0
    7.1746   -5.7287   18.0441 He  0  0  0  0  0  0  0  0  0  0  0  0
    4.2611  -12.1340   19.3024 He  0  0  0  0  0  0  0  0  0  0  0  0
   11.1099   -4.9652   19.8360 He  0  0  0  0  0  0  0  0  0  0  0  0
    8.4488   -4.1850   18.2750 He  0  0  0  0  0  0  0  0  0  0  0  0
    5.5675   -8.3823   16.2325 He  0  0  0  0  0  0  0  0  0  0  0  0
    8.8541   -7.0272   17.3947 He  0  0  0  0  0  0  0  0  0  0  0  0
   10.8526   -4.9636   21.5835 He  0  0  0  0  0  0  0  0  0  0  0  0
    8.5707   -6.6568   14.5516 He  0  0  0  0  0  0  0  0  0  0  0  0
  1  3  4  0
  1  7  1  0
  1  8  3  0
  1  9  1  0
  1 11  3  0
  1 15  2  0
  1 16  2  0
  1 20  3  0
  2  5  1  0
  2  8  3  0
  2 10  4  0
  2 12  1  0
  2 21  3  0
  3  4  4  0
  3  5  4  0
  3  6  1  0
  3  7  1  0
  3  9  1  0
  3 10  1  0
  3 13  2  0
  3 14  2  0
  3 18  2  0
  4  8  4  0
  4 14  4  0
  4 16  3  0
  4 18  4  0
  4 19  3  0
  4 20  3  0
  5  8  3  0
  5  9  1  0
  5 11  3  0
  5 15  4  0
  5 18  2  0
  5 21  1  0
  6  8  1  0
  6 10  4  0
  6 12  2  0
  6 15  3  0
  6 16  3  0
  6 17  4  0
  6 21  4  0
  7  8  1  0
  7  9  3  0
  7 14  4  0
  7 15  3  0
  7 18  3  0
  7 19  4  0
  8 12  3  0
  8 19  2  0
  9 10  1  0
  9 13  1  0
  9 17  3  0
  9 18  1  0
 10 11  1  0
 10 18  1  0
 10 19  2  0
 11 12  2  0
 11 14  2  0
 11 16  4  0
 11 17  2  0
 11 21  2  0
 12 14  4  0
 12 16  2  0
 12 17  1  0
 12 18  2  0
 12 20  4  0
 12 21  3  0
 13 14  2  0
 13 19  4  0
 13 21  1  0
 14 16  4  0
 14 17  3  0
 14 21  3  0
 15 17  1  0
 15 20  4  0
 16 21  4  0
 17 18  4  0
 17 19  1  0
 17 21  4  0
 18 21  1  0
 20 21  4  0
M  END
$$$$

 Created by Python create_sdf_string function

 34  9  0  0  0  0  0  0  0  0999 V2000
   10.9494   -3.9447   21.7096 C   0  0  0  0  0  0  0  0  0  0  0  0
    8.0522   -8.5900   17.1824 C   0  0  0  0  0  0  0  0  0  0  0  0
    9.1724   -5.2208   16.5963 C   0  0  0  0  0  0  0  0  0  0  0  0
    2.6586  -10.4247   18.0933 C   0  0  0  0  0  0  0  0  0  0  0  0
    3.8290  -11.5278   18.7169 C   0  0  0  0  0  0  0  0  0  0  0  0
   11.2272   -3.7944   21.3587 C   0  0  0  0  0  0  0  0  0  0  0  0
    6.3388   -7.8474   18.3442 F   0  0  0  0  0  0  0  0  0  0  0  0
   10.1804   -4.4585   19.5969 C   0  0  0  0  0  0  0  0  0  0  0  0
    4.3552   -9.9708   17.7846 C   0  0  0  0  0  0  0  0  0  0  0  0
    7.9139   -6.5607   17.9250 C   0  0  0  0  0  0  0  0  0  0  0  0
    2.1667  -11.2398   18.8620 C   0  0  0  0  0  0  0  0  0  0  0  0
    7.4708   -6.9300   15.8647 C   0  0  0  0  0  0  0  0  0  0  0  0
    8.1569   -7.9045   18.8743 F   0  0  0  0  0  0  0  0  0  0  0  0
    6.8249   -7.9703   15.5934 C   0  0  0  0  0  0  0  0  0  0  0  0
    3.3934  -11.4264   18.9221 C   0  0  0  0  0  0  0  0  0  0  0  0
    8.5135   -7.1194   15.1473 F   0  0  0  0  0  0  0  0  0  0  0  0
   10.9005   -4.7208   19.8348 C   0  0  0  0  0  0  0  0  0  0  0  0
    9.8619   -4.8146   18.4081 C   0  0  0  0  0  0  0  0  0  0  0  0
    9.0482   -6.1703   18.7457 C   0  0  0  0  0  0  0  0  0  0  0  0
    6.3917   -8.4466   17.4726 C   0  0  0  0  0  0  0  0  0  0  0  0
    5.4015   -8.5381   16.4377 C   0  0  0  0  0  0  0  0  0  0  0  0
    0.8229  -11.7556   21.3545 C   0  0  0  0  0  0  0  0  0  0  0  0
    8.8247   -7.0045   17.5168 C   0  0  0  0  0  0  0  0  0  0  0  0
   10.2066   -4.0471   16.5558 C   0  0  0  0  0  0  0  0  0  0  0  0
    8.7034   -5.8169   16.9878 C   0  0  0  0  0  0  0  0  0  0  0  0
   10.7120   -5.0601   21.7286 O   0  0  0  0  0  0  0  0  0  0  0  0
    1.6708  -11.6998   19.6300 C   0  0  0  0  0  0  0  0  0  0  0  0
    3.1605   -9.5667   17.1189 C   0  0  0  0  0  0  0  0  0  0  0  0
    8.2314   -7.1755   15.2844 F   0  0  0  0  0  0  0  0  0  0  0  0
    0.7069  -12.2303   19.5829 C   0  0  0  0  0  0  0  0  0  0  0  0
    4.8882   -9.1652   17.3928 C   0  0  0  0  0  0  0  0  0  0  0  0
   10.6237   -4.1538   18.3856 C   0  0  0  0  0  0  0  0  0  0  0  0
    1.1713  -11.6470   20.5721 C   0  0  0  0  0  0  0  0  0  0  0  0
    5.0113   -8.5369   16.1349 C   0  0  0  0  0  0  0  0  0  0  0  0
  1  6  1  0
  1 26  1  0
  4 11  4  0
  4 28  4  0
  5 15  4  0
 11 27  4  0
 16 29  1  0
 22 33  4  0
 27 33  4  0
M  END
$$$$

 Created by Python create_sdf_string function

 34 88  0  0  0  0  0  0  0  0999 V2000
   11.2460   -4.4978   21.4950 C   0  0  0  0  0  0  0  0  0  0  0  0
    8.7510   -6.7226   17.8568 O   0  0  0  0  0  0  0  0  0  0  0  0
    3.3209  -11.3041   21.1560 S   0  0  0  0  0  0  0  0  0  0  0  0
   11.2538   -3.9225   21.0292 F   0  0  0  0  0  0  0  0  0  0  0  0
    4.1468   -9.7620   16.7157 O   0  0  0  0  0  0  0  0  0  0  0  0
    0.9041  -11.4443   18.3006 F   0  0  0  0  0  0  0  0  0  0  0  0
    5.7734   -5.1926   14.4530 S   0  0  0  0  0  0  0  0  0  0  0  0
    8.9838   -8.3905   18.7116 N   0  0  0  0  0  0  0  0  0  0  0  0
    8.4143   -6.1751   15.7955 C   0  0  0  0  0  0  0  0  0  0  0  0
   12.2379   -4.6300   21.1453 N   0  0  0  0  0  0  0  0  0  0  0  0
    9.7861   -7.7258   19.4509 I   0  0  0  0  0  0  0  0  0  0  0  0
    4.8421   -9.6056   16.4790 F   0  0  0  0  0  0  0  0  0  0  0  0
    6.1345   -9.4113   15.3775 O   0  0  0  0  0  0  0  0  0  0  0  0
    1.7277  -11.6419   21.7609 C   0  0  0  0  0  0  0  0  0  0  0  0
   10.0932   -3.5714   16.9943 C   0  0  0  0  0  0  0  0  0  0  0  0
   10.9851   -4.8040   21.3656 O   0  0  0  0  0  0  0  0  0  0  0  0
    1.7838  -11.6096   20.4714 C   0  0  0  0  0  0  0  0  0  0  0  0
    3.2813   -9.8388   16.9602 C   0  0  0  0  0  0  0  0  0  0  0  0
    0.3604  -12.5624   19.3762 C   0  0  0  0  0  0  0  0  0  0  0  0
    4.5541   -8.2811   18.8786 N   0  0  0  0  0  0  0  0  0  0  0  0
    1.3147  -11.3450   21.1259 C   0  0  0  0  0  0  0  0  0  0  0  0
    7.4781   -8.7694   17.3532 He  0  0  0  0  0  0  0  0  0  0  0  0
    2.8708   -9.9078   18.5460 He  0  0  0  0  0  0  0  0  0  0  0  0
    6.0477   -8.9854   19.0454 He  0  0  0  0  0  0  0  0  0  0  0  0
    9.7000   -4.2431   19.7128 He  0  0  0  0  0  0  0  0  0  0  0  0
    9.1692   -7.5686   17.7246 He  0  0  0  0  0  0  0  0  0  0  0  0
    8.5734   -7.9504   14.4139 He  0  0  0  0  0  0  0  0  0  0  0  0
    3.8028  -11.1353   17.7239 He  0  0  0  0  0  0  0  0  0  0  0  0
    9.9282   -6.5225   19.1531 He  0  0  0  0  0  0  0  0  0  0  0  0
    9.0537   -6.8831   18.1732 He  0  0  0  0  0  0  0  0  0  0  0  0
    9.9504   -4.9825   16.5666 He  0  0  0  0  0  0  0  0  0  0  0  0
    7.3342   -6.9501   14.5903 He  0  0  0  0  0  0  0  0  0  0  0  0
   10.2406   -4.1092   18.1009 He  0  0  0  0  0  0  0  0  0  0  0  0
    5.2214   -8.7701   15.3568 He  0  0  0  0  0  0  0  0  0  0  0  0
  1  3  4  0
  1  4  1  0
  1  8  1  0
  1 10  4  0
  1 12  3  0
  1 13  1  0
  1 21  3  0
  2  6  3  0
  2 10  4  0
  2 11  4  0
  2 12  3  0
  2 16  3  0
  2 18  4  0
  2 20  4  0
  3  7  3  0
  3  8  2  0
  3  9  3  0
  3 17  3  0
  3 18  4  0
  3 19  1  0
  3 20  4  0
  3 21  4  0
  4  5  1  0
  4  9  1  0
  4 11  1  0
  4 12  4  0
  4 17  3  0
  4 20  1  0
  5  6  3  0
  5 11  1  0
  5 12  1  0
  5 13  3  0
  5 16  4  0
  5 17  4  0
  5 19  1  0
  6 11  2  0
  6 12  1  0
  6 13  2  0
  6 15  2  0
  6 17  4  0
  6 20  1  0
  7 11  4  0
  7 13  4  0
  7 14  2  0
  7 15  2  0
  7 21  4  0
  8 10  1  0
  8 11  4  0
  8 16  3  0
  8 17  4  0
  8 21  4  0
  9 10  1  0
  9 12  3  0
  9 13  3  0
  9 15  3  0
  9 16  2  0
  9 20  4  0
 10 14  4  0
 10 15  4  0
 10 17  3  0
 10 20  2  0
 10 21  4  0
 11 12  4  0
 11 13  4  0
 11 14  1  0
 11 15  2  0
 11 16  2  0
 11 17  4  0
 11 19  3  0
 11 20  4  0
 12 16  3  0
 12 17  3  0
 12 18  2  0
 12 20  4  0
 13 15  2  0
 13 16  3  0
 13 19  2  0
 13 20  4  0
 13 21  3  0
 14 15  2  0
 14 16  2  0
 14 17  4  0
 14 20  1  0
 14 21  4  0
 15 16  4  0
 17 18  3  0
 17 21  4  0
 20 21  4  0
M  END
$$$$

 Created by Python create_sdf_string function

 34 11  0  0  0  0  0  0  0  0999 V2000
   11.2282   -4.3766   21.4495 C   0  0  0  0  0  0  0  0  0  0  0  0
    7.2692   -8.4322   17.0950 C   0  0  0  0  0  0  0  0  0  0  0  0
    8.9679   -6.5565   17.7057 C   0  0  0  0  0  0  0  0  0  0  0  0
    2.8211  -10.6150   18.2142 C   0  0  0  0  0  0  0  0  0  0  0  0
    2.5239  -11.6046   20.0021 C   0  0  0  0  0  0  0  0  0  0  0  0
   11.1489   -3.6308   21.1903 C   0  0  0  0  0  0  0  0  0  0  0  0
    5.8898   -8.7895   18.3473 C   0  0  0  0  0  0  0  0  0  0  0  0
   10.4620   -4.3524   19.5419 C   0  0  0  0  0  0  0  0  0  0  0  0
    3.9722   -9.4992   16.8705 C   0  0  0  0  0  0  0  0  0  0  0  0
    8.8119   -7.4086   17.6248 C   0  0  0  0  0  0  0  0  0  0  0  0
    1.2430  -11.4252   18.5666 C   0  0  0  0  0  0  0  0  0  0  0  0
    6.5335   -6.2725   15.2915 O   0  0  0  0  0  0  0  0  0  0  0  0
    8.8054   -7.8254   18.2420 C   0  0  0  0  0  0  0  0  0  0  0  0
    8.1571   -7.9948   15.1437 C   0  0  0  0  0  0  0  0  0  0  0  0
    3.5294  -10.5818   18.1068 C   0  0  0  0  0  0  0  0  0  0  0  0
    8.2706   -6.1541   16.0350 C   0  0  0  0  0  0  0  0  0  0  0  0
   11.8785   -4.3639   21.3128 C   0  0  0  0  0  0  0  0  0  0  0  0
    9.8399   -6.8852   19.0155 C   0  0  0  0  0  0  0  0  0  0  0  0
   10.1175   -5.9789   19.0712 C   0  0  0  0  0  0  0  0  0  0  0  0
    4.7047   -9.2523   16.7386 C   0  0  0  0  0  0  0  0  0  0  0  0
    6.2177   -8.8516   15.6330 C   0  0  0  0  0  0  0  0  0  0  0  0
    1.4010  -11.8835   21.6889 C   0  0  0  0  0  0  0  0  0  0  0  0
    9.2761   -6.4353   18.0887 C   0  0  0  0  0  0  0  0  0  0  0  0
   10.1686   -3.7887   16.8738 C   0  0  0  0  0  0  0  0  0  0  0  0
    9.6860   -4.5313   16.7281 C   0  0  0  0  0  0  0  0  0  0  0  0
   10.9001   -4.9012   21.7267 O   0  0  0  0  0  0  0  0  0  0  0  0
    1.7004  -11.6643   20.1621 C   0  0  0  0  0  0  0  0  0  0  0  0
    2.9955   -9.6852   16.9922 C   0  0  0  0  0  0  0  0  0  0  0  0
    7.3955   -7.2121   15.3706 C   0  0  0  0  0  0  0  0  0  0  0  0
    0.6329  -12.2295   19.5915 C   0  0  0  0  0  0  0  0  0  0  0  0
    5.1160   -9.0155   17.9113 C   0  0  0  0  0  0  0  0  0  0  0  0
   10.3977   -4.0592   18.2526 C   0  0  0  0  0  0  0  0  0  0  0  0
    1.4121  -11.7883   21.0751 C   0  0  0  0  0  0  0  0  0  0  0  0
    5.4255   -8.6992   15.8250 C   0  0  0  0  0  0  0  0  0  0  0  0
  1  6  1  0
  1 17  1  0
  1 26  1  0
  4 11  4  0
  4 15  4  0
  7 31  4  0
 11 30  4  0
 14 29  1  0
 21 34  1  0
 22 33  4  0
 24 25  4  0
M  END
$$$$

 Created by Python create_sdf_string function

 34 96  0  0  0  0  0  0  0  0999 V2000
    7.1504   -8.2740   17.7533 C   0  0  0  0  0  0  0  0  0  0  0  0
    2.6897  -10.8245   18.4964 C   0  0  0  0  0  0  0  0  0  0  0  0
    1.8604  -11.7931   19.6059 N   0  0  0  0  0  0  0  0  0  0  0  0
   11.2790   -3.3369   21.1156 C   0  0  0  0  0  0  0  0  0  0  0  0
    9.1433   -5.7491   19.9046 N   0  0  0  0  0  0  0  0  0  0  0  0
    3.2169   -8.8266   18.6677 C   0  0  0  0  0  0  0  0  0  0  0  0
    7.9878   -6.8092   18.4785 C   0  0  0  0  0  0  0  0  0  0  0  0
    1.0200  -11.7673   18.3431 C   0  0  0  0  0  0  0  0  0  0  0  0
    7.2133   -9.3947   16.2998 C   0  0  0  0  0  0  0  0  0  0  0  0
    8.2183   -6.4395   15.5076 C   0  0  0  0  0  0  0  0  0  0  0  0
   10.8646   -5.8049   18.7942 B   0  0  0  0  0  0  0  0  0  0  0  0
    2.2704   -8.7061   16.6504 F   0  0  0  0  0  0  0  0  0  0  0  0
    5.2708   -7.8229   15.8545 C   0  0  0  0  0  0  0  0  0  0  0  0
   10.3154   -4.6479   15.1546 Cl  0  0  0  0  0  0  0  0  0  0  0  0
   10.9681   -4.5577   21.7229 O   0  0  0  0  0  0  0  0  0  0  0  0
    1.3504  -11.8243   20.6157 C   0  0  0  0  0  0  0  0  0  0  0  0
    3.2060   -9.7151   16.6911 Cl  0  0  0  0  0  0  0  0  0  0  0  0
    7.4686   -7.6511   15.3161 Br  0  0  0  0  0  0  0  0  0  0  0  0
    0.2506  -12.0944   20.0959 P   0  0  0  0  0  0  0  0  0  0  0  0
    7.4375   -7.5498   18.8863 Cl  0  0  0  0  0  0  0  0  0  0  0  0
   10.6273   -4.5133   18.4648 C   0  0  0  0  0  0  0  0  0  0  0  0
    0.9219  -12.2240   21.1887 C   0  0  0  0  0  0  0  0  0  0  0  0
   10.9348   -4.1027   21.8012 He  0  0  0  0  0  0  0  0  0  0  0  0
    8.9127   -4.9521   16.8757 He  0  0  0  0  0  0  0  0  0  0  0  0
    8.2504   -9.3162   18.6194 He  0  0  0  0  0  0  0  0  0  0  0  0
    6.6964   -7.0675   15.8747 He  0  0  0  0  0  0  0  0  0  0  0  0
    9.1464   -8.7348   17.1579 He  0  0  0  0  0  0  0  0  0  0  0  0
    3.3065   -8.8968   17.8284 He  0  0  0  0  0  0  0  0  0  0  0  0
   11.3007   -3.1721   20.9856 He  0  0  0  0  0  0  0  0  0  0  0  0
   10.5472   -7.8888   17.6457 He  0  0  0  0  0  0  0  0  0  0  0  0
    1.4251  -11.9971   21.8599 He  0  0  0  0  0  0  0  0  0  0  0  0
    8.6117   -4.4443   17.3212 He  0  0  0  0  0  0  0  0  0  0  0  0
   10.0936   -3.7713   17.3457 He  0  0  0  0  0  0  0  0  0  0  0  0
    4.8333   -9.5435   15.1966 He  0  0  0  0  0  0  0  0  0  0  0  0
  1  3  4  0
  1  4  3  0
  1  6  2  0
  1  7  2  0
  1 11  3  0
  1 14  3  0
  1 15  3  0
  1 18  4  0
  1 21  2  0
  2  5  1  0
  2  6  4  0
  2  7  1  0
  2  8  1  0
  2 11  2  0
  2 13  3  0
  2 16  2  0
  2 18  4  0
  2 19  4  0
  2 20  3  0
  3  5  2  0
  3  7  3  0
  3 11  2  0
  3 13  4  0
  3 14  1  0
  3 15  2  0
  3 17  3  0
  3 19  4  0
  3 20  2  0
  3 22  4  0
  4  6  3  0
  4  9  3  0
  4 12  2  0
  4 13  4  0
  4 14  3  0
  4 20  4  0
  4 22  2  0
  5  9  3  0
  5 10  1  0
  5 12  3  0
  5 13  4  0
  5 16  3  0
  5 17  2  0
  5 19  2  0
  5 21  1  0
  6  7  4  0
  6  9  1  0
  6 12  4  0
  6 13  4  0
  6 18  2  0
  6 19  1  0
  7  8  2  0
  7  9  1  0
  7 11  4  0
  7 12  4  0
  7 20  4  0
  7 21  3  0
  8 10  2  0
  8 11  4  0
  8 13  1  0
  8 18  1  0
  8 19  4  0
  9 11  3  0
  9 12  2  0
  9 14  3  0
  9 20  4  0
  9 21  1  0
 10 13  1  0
 10 14  1  0
 10 15  1  0
 10 16  1  0
 10 17  3  0
 10 18  3  0
 10 19  1  0
 11 12  1  0
 11 13  3  0
 11 14  4  0
 11 15  2  0
 11 20  2  0
 12 13  2  0
 12 19  3  0
 13 20  1  0
 13 21  1  0
 14 16  3  0
 14 17  3  0
 14 18  3  0
 14 21  3  0
 14 22  3  0
 15 20  1  0
 15 22  2  0
 16 18  2  0
 16 19  2  0
 16 20  1  0
 17 18  3  0
 17 20  3  0
 19 20  4  0
 20 21  1  0
M  END
$$$$

 Created by Python create_sdf_string function

 34 12  0  0  0  0  0  0  0  0999 V2000
   10.9078   -4.0522   21.8575 C   0  0  0  0  0  0  0  0  0  0  0  0
    6.7863   -8.2325   17.5788 C   0  0  0  0  0  0  0  0  0  0  0  0
    9.4916   -4.9219   16.9252 C   0  0  0  0  0  0  0  0  0  0  0  0
    2.5338  -10.7411   18.4371 C   0  0  0  0  0  0  0  0  0  0  0  0
    1.8322  -11.5470   19.6819 C   0  0  0  0  0  0  0  0  0  0  0  0
   11.1832   -3.5680   20.7590 C   0  0  0  0  0  0  0  0  0  0  0  0
    8.0128   -8.2622   18.1719 C   0  0  0  0  0  0  0  0  0  0  0  0
   10.0930   -5.2430   19.6000 C   0  0  0  0  0  0  0  0  0  0  0  0
    3.6322  -10.1257   17.9903 C   0  0  0  0  0  0  0  0  0  0  0  0
    8.3921   -6.7803   18.1432 C   0  0  0  0  0  0  0  0  0  0  0  0
    1.1752  -11.2416   18.4429 C   0  0  0  0  0  0  0  0  0  0  0  0
    6.6801   -7.1340   15.9630 C   0  0  0  0  0  0  0  0  0  0  0  0
    8.8703   -8.1120   17.1795 C   0  0  0  0  0  0  0  0  0  0  0  0
    6.8753   -8.7276   16.2609 C   0  0  0  0  0  0  0  0  0  0  0  0
    3.8997   -9.7096   17.6685 C   0  0  0  0  0  0  0  0  0  0  0  0
    8.0579   -6.6598   15.8884 C   0  0  0  0  0  0  0  0  0  0  0  0
   11.2003   -3.5085   20.8200 C   0  0  0  0  0  0  0  0  0  0  0  0
    9.6690   -7.3361   18.0180 C   0  0  0  0  0  0  0  0  0  0  0  0
   10.3134   -5.3873   18.9099 C   0  0  0  0  0  0  0  0  0  0  0  0
    2.6295   -9.3766   16.8312 C   0  0  0  0  0  0  0  0  0  0  0  0
    5.1399   -8.3690   16.2837 C   0  0  0  0  0  0  0  0  0  0  0  0
    1.2666  -12.1182   21.6897 C   0  0  0  0  0  0  0  0  0  0  0  0
    9.6433   -4.7312   17.0649 C   0  0  0  0  0  0  0  0  0  0  0  0
   10.4744   -3.9375   17.1420 C   0  0  0  0  0  0  0  0  0  0  0  0
    9.9289   -4.2136   16.1089 C   0  0  0  0  0  0  0  0  0  0  0  0
   10.9178   -4.6299   21.7352 O   0  0  0  0  0  0  0  0  0  0  0  0
    1.4958  -11.8825   20.5935 C   0  0  0  0  0  0  0  0  0  0  0  0
    3.0827   -9.2860   16.8525 C   0  0  0  0  0  0  0  0  0  0  0  0
    7.4338   -7.6299   15.6429 C   0  0  0  0  0  0  0  0  0  0  0  0
    0.5668  -11.9824   19.6809 C   0  0  0  0  0  0  0  0  0  0  0  0
    7.3423   -7.4544   18.2743 C   0  0  0  0  0  0  0  0  0  0  0  0
   10.6248   -4.3548   18.7477 C   0  0  0  0  0  0  0  0  0  0  0  0
    1.0006  -12.1052   21.2098 C   0  0  0  0  0  0  0  0  0  0  0  0
    4.6463   -8.7800   16.0037 C   0  0  0  0  0  0  0  0  0  0  0  0
  1 26  1  0
  3 23  1  0
  4  9  4  0
  5 27  4  0
  6 17  4  0
  9 15  4  0
 11 30  4  0
 13 18  1  0
 20 28  4  0
 21 34  1  0
 22 27  4  0
 22 33  4  0
M  END
$$$$

 Created by Python create_sdf_string function

 34112  0  0  0  0  0  0  0  0999 V2000
   11.5436   -4.1190   22.1687 C   0  0  0  0  0  0  0  0  0  0  0  0
    2.1078  -11.2605   18.3502 F   0  0  0  0  0  0  0  0  0  0  0  0
    0.4485  -12.4250   18.9657 Se  0  0  0  0  0  0  0  0  0  0  0  0
   11.1518   -3.7670   20.3311 F   0  0  0  0  0  0  0  0  0  0  0  0
    7.5684   -7.9452   18.8158 C   0  0  0  0  0  0  0  0  0  0  0  0
    2.7680  -10.3056   17.0359 C   0  0  0  0  0  0  0  0  0  0  0  0
    8.1179   -7.0927   18.6411 N   0  0  0  0  0  0  0  0  0  0  0  0
    1.4700  -11.6173   18.3434 C   0  0  0  0  0  0  0  0  0  0  0  0
    7.5575   -8.7026   18.3941 N   0  0  0  0  0  0  0  0  0  0  0  0
    8.0406   -7.6414   15.0599 F   0  0  0  0  0  0  0  0  0  0  0  0
    4.1399   -9.3978   16.1153 C   0  0  0  0  0  0  0  0  0  0  0  0
   10.7084   -3.8527   20.0141 N   0  0  0  0  0  0  0  0  0  0  0  0
    2.7114   -9.2958   15.6257 N   0  0  0  0  0  0  0  0  0  0  0  0
    0.9274  -12.8598   21.8856 C   0  0  0  0  0  0  0  0  0  0  0  0
   10.5084   -3.5057   17.3775 C   0  0  0  0  0  0  0  0  0  0  0  0
    9.7570   -4.5630   17.4392 P   0  0  0  0  0  0  0  0  0  0  0  0
   10.9349   -4.3669   21.5334 O   0  0  0  0  0  0  0  0  0  0  0  0
    1.4536  -12.1504   20.6968 C   0  0  0  0  0  0  0  0  0  0  0  0
    2.8884   -9.0861   16.9833 O   0  0  0  0  0  0  0  0  0  0  0  0
    7.1903   -7.3772   16.2608 O   0  0  0  0  0  0  0  0  0  0  0  0
    0.6349  -11.9286   20.0583 C   0  0  0  0  0  0  0  0  0  0  0  0
    7.1402   -8.1082   18.6743 C   0  0  0  0  0  0  0  0  0  0  0  0
   10.3172   -3.9387   18.9233 C   0  0  0  0  0  0  0  0  0  0  0  0
    1.3525  -11.6746   21.3065 C   0  0  0  0  0  0  0  0  0  0  0  0
    5.8991   -8.8470   15.9807 N   0  0  0  0  0  0  0  0  0  0  0  0
    6.8493   -8.7651   19.0346 He  0  0  0  0  0  0  0  0  0  0  0  0
   10.9884   -4.9147   18.5058 He  0  0  0  0  0  0  0  0  0  0  0  0
   11.3973   -5.2117   19.0055 He  0  0  0  0  0  0  0  0  0  0  0  0
    7.7945   -5.6514   15.6264 He  0  0  0  0  0  0  0  0  0  0  0  0
    7.5838   -5.9466   16.6562 He  0  0  0  0  0  0  0  0  0  0  0  0
   11.1054   -7.2554   18.5938 He  0  0  0  0  0  0  0  0  0  0  0  0
   10.9576   -4.9511   19.4626 He  0  0  0  0  0  0  0  0  0  0  0  0
    4.9038   -6.6496   17.3322 He  0  0  0  0  0  0  0  0  0  0  0  0
    9.6774   -6.1139   17.2942 He  0  0  0  0  0  0  0  0  0  0  0  0
  1  3  4  0
  1  6  1  0
  1  9  3  0
  1 11  3  0
  1 12  2  0
  1 13  2  0
  1 15  1  0
  1 21  1  0
  1 22  4  0
  1 23  1  0
  2  6  1  0
  2  7  2  0
  2 11  4  0
  2 12  1  0
  2 13  4  0
  2 19  4  0
  2 20  2  0
  3  4  2  0
  3  6  4  0
  3  7  1  0
  3  9  4  0
  3 12  1  0
  3 15  1  0
  3 16  4  0
  3 17  2  0
  3 22  4  0
  3 25  1  0
  4  5  2  0
  4  8  2  0
  4 12  2  0
  4 22  2  0
  5  7  1  0
  5  8  1  0
  5  9  3  0
  5 13  1  0
  5 14  2  0
  5 16  2  0
  5 17  1  0
  5 18  3  0
  5 19  1  0
  5 22  2  0
  5 24  1  0
  6  7  3  0
  6 13  4  0
  6 14  4  0
  6 15  2  0
  6 17  3  0
  6 22  4  0
  6 23  2  0
  6 24  3  0
  7 12  2  0
  7 13  1  0
  7 16  4  0
  7 17  2  0
  7 20  2  0
  7 22  3  0
  7 25  1  0
  8  9  2  0
  8 10  2  0
  8 11  4  0
  8 20  2  0
  8 21  4  0
  8 22  2  0
  8 23  4  0
  9 13  1  0
  9 16  4  0
  9 20  3  0
  9 22  2  0
  9 23  3  0
 10 13  2  0
 10 14  4  0
 10 15  1  0
 10 16  2  0
 10 20  1  0
 10 24  1  0
 11 12  4  0
 11 16  1  0
 11 18  2  0
 11 19  2  0
 11 21  2  0
 11 23  3  0
 11 25  1  0
 12 16  2  0
 12 17  4  0
 12 20  2  0
 12 22  3  0
 12 24  3  0
 12 25  2  0
 13 14  2  0
 13 16  1  0
 13 17  1  0
 13 21  2  0
 13 25  1  0
 14 19  2  0
 14 23  1  0
 15 22  2  0
 15 24  4  0
 15 25  4  0
 16 19  2  0
 16 22  4  0
 16 25  3  0
 17 22  1  0
 18 22  2  0
 18 25  2  0
 19 20  1  0
 19 25  2  0
 20 22  4  0
 20 25  4  0
 21 22  1  0
 22 24  1  0
 23 25  3  0
 24 25  2  0
M  END
$$$$

 Created by Python create_sdf_string function

 34  9  0  0  0  0  0  0  0  0999 V2000
   11.3559   -4.0846   21.9790 C   0  0  0  0  0  0  0  0  0  0  0  0
    6.2181   -8.5530   18.4527 C   0  0  0  0  0  0  0  0  0  0  0  0
   10.6656   -5.0703   18.6167 C   0  0  0  0  0  0  0  0  0  0  0  0
    2.3069  -10.7118   18.1807 C   0  0  0  0  0  0  0  0  0  0  0  0
    0.8685  -12.0410   19.4927 C   0  0  0  0  0  0  0  0  0  0  0  0
   11.1516   -3.6001   20.5235 C   0  0  0  0  0  0  0  0  0  0  0  0
    7.8326   -7.7384   18.0528 C   0  0  0  0  0  0  0  0  0  0  0  0
   11.0657   -5.1302   19.2913 C   0  0  0  0  0  0  0  0  0  0  0  0
    2.4512  -10.0804   17.5448 C   0  0  0  0  0  0  0  0  0  0  0  0
    8.5798   -7.1497   18.0402 C   0  0  0  0  0  0  0  0  0  0  0  0
    1.4141  -11.2059   18.6849 C   0  0  0  0  0  0  0  0  0  0  0  0
    7.9620   -5.9909   15.8819 C   0  0  0  0  0  0  0  0  0  0  0  0
    7.3110   -8.2241   17.8893 C   0  0  0  0  0  0  0  0  0  0  0  0
    7.9265   -7.8887   15.5095 C   0  0  0  0  0  0  0  0  0  0  0  0
    4.1188   -9.1037   16.6808 C   0  0  0  0  0  0  0  0  0  0  0  0
    7.9212   -6.2332   16.3922 C   0  0  0  0  0  0  0  0  0  0  0  0
   10.9826   -3.7273   20.6457 C   0  0  0  0  0  0  0  0  0  0  0  0
   10.4407   -6.8656   18.7797 C   0  0  0  0  0  0  0  0  0  0  0  0
   10.8641   -4.9549   19.6784 C   0  0  0  0  0  0  0  0  0  0  0  0
    2.8259   -9.3327   16.5626 C   0  0  0  0  0  0  0  0  0  0  0  0
    5.0756   -7.8147   16.8534 C   0  0  0  0  0  0  0  0  0  0  0  0
    0.9067  -12.4652   21.6262 C   0  0  0  0  0  0  0  0  0  0  0  0
    9.3514   -5.9090   17.2210 C   0  0  0  0  0  0  0  0  0  0  0  0
   10.5490   -3.8018   17.0744 C   0  0  0  0  0  0  0  0  0  0  0  0
    9.9048   -4.5732   16.9776 C   0  0  0  0  0  0  0  0  0  0  0  0
   11.0210   -4.3584   21.8405 O   0  0  0  0  0  0  0  0  0  0  0  0
    1.3491  -11.8034   20.9251 C   0  0  0  0  0  0  0  0  0  0  0  0
    3.1332   -9.4296   17.1480 C   0  0  0  0  0  0  0  0  0  0  0  0
    7.0811   -7.6801   16.1073 C   0  0  0  0  0  0  0  0  0  0  0  0
    0.9200  -11.9007   19.7649 C   0  0  0  0  0  0  0  0  0  0  0  0
    6.7934   -8.0736   17.9661 C   0  0  0  0  0  0  0  0  0  0  0  0
   10.6991   -4.0658   18.6091 C   0  0  0  0  0  0  0  0  0  0  0  0
    1.4631  -12.0316   21.0497 C   0  0  0  0  0  0  0  0  0  0  0  0
    5.4275   -8.5780   16.1746 C   0  0  0  0  0  0  0  0  0  0  0  0
  1 26  4  0
  5 30  4  0
  7 10  1  0
 11 30  4  0
 12 16  1  0
 14 29  1  0
 22 27  4  0
 22 33  4  0
 27 33  4  0
M  END
$$$$

 Created by Python create_sdf_string function

 34 66  0  0  0  0  0  0  0  0999 V2000
   11.6318   -3.8292   22.5045 C   0  0  0  0  0  0  0  0  0  0  0  0
   11.7136   -4.6180   17.8138 C   0  0  0  0  0  0  0  0  0  0  0  0
    2.4791  -10.6602   17.8832 C   0  0  0  0  0  0  0  0  0  0  0  0
   -0.8330  -12.5689   18.9080 C   0  0  0  0  0  0  0  0  0  0  0  0
    9.8188   -5.8930   20.1864 N   0  0  0  0  0  0  0  0  0  0  0  0
    9.9580   -6.7748   18.9850 O   0  0  0  0  0  0  0  0  0  0  0  0
    1.7424  -11.9712   18.3095 C   0  0  0  0  0  0  0  0  0  0  0  0
    6.1920   -8.0276   16.5854 N   0  0  0  0  0  0  0  0  0  0  0  0
    8.2264   -6.9555   17.2131 O   0  0  0  0  0  0  0  0  0  0  0  0
    1.6584  -12.5734   21.5464 F   0  0  0  0  0  0  0  0  0  0  0  0
    7.7643   -7.6373   16.8820 C   0  0  0  0  0  0  0  0  0  0  0  0
   10.3030   -3.9133   16.7255 C   0  0  0  0  0  0  0  0  0  0  0  0
    9.8142   -3.8483   17.9222 Cl  0  0  0  0  0  0  0  0  0  0  0  0
   11.1569   -5.0648   21.5445 O   0  0  0  0  0  0  0  0  0  0  0  0
    1.8322  -11.2493   20.6904 C   0  0  0  0  0  0  0  0  0  0  0  0
    3.1375  -10.1544   17.1265 C   0  0  0  0  0  0  0  0  0  0  0  0
    1.1655  -11.4888   19.3387 C   0  0  0  0  0  0  0  0  0  0  0  0
    1.5585  -12.1389   21.2714 C   0  0  0  0  0  0  0  0  0  0  0  0
    6.9337   -9.6398   17.4177 S   0  0  0  0  0  0  0  0  0  0  0  0
    7.7366   -8.6611   17.5895 He  0  0  0  0  0  0  0  0  0  0  0  0
   10.8955   -3.9105   21.5408 He  0  0  0  0  0  0  0  0  0  0  0  0
    8.8977   -7.4245   17.8976 He  0  0  0  0  0  0  0  0  0  0  0  0
    2.8226   -9.2290   18.0867 He  0  0  0  0  0  0  0  0  0  0  0  0
    8.5851   -6.5198   15.8951 He  0  0  0  0  0  0  0  0  0  0  0  0
    7.0324   -8.8163   18.1989 He  0  0  0  0  0  0  0  0  0  0  0  0
    7.7288   -6.8933   14.4808 He  0  0  0  0  0  0  0  0  0  0  0  0
   10.6652   -6.0008   19.5478 He  0  0  0  0  0  0  0  0  0  0  0  0
    9.4216   -6.9461   19.7701 He  0  0  0  0  0  0  0  0  0  0  0  0
   12.1068   -5.2210   20.6095 He  0  0  0  0  0  0  0  0  0  0  0  0
    2.9369   -9.3085   17.2384 He  0  0  0  0  0  0  0  0  0  0  0  0
    4.1988   -8.3737   14.6653 He  0  0  0  0  0  0  0  0  0  0  0  0
    6.9760   -8.4494   15.9288 He  0  0  0  0  0  0  0  0  0  0  0  0
    6.3804   -7.7658   18.6148 He  0  0  0  0  0  0  0  0  0  0  0  0
   10.9353   -3.7846   18.7098 He  0  0  0  0  0  0  0  0  0  0  0  0
  1  4  4  0
  1 10  2  0
  1 11  3  0
  1 13  2  0
  1 14  4  0
  1 16  2  0
  1 19  3  0
  2  4  2  0
  2  8  2  0
  2 12  3  0
  2 13  2  0
  2 14  4  0
  2 17  4  0
  2 19  1  0
  3  5  1  0
  3  7  4  0
  3  9  1  0
  3 11  2  0
  3 12  3  0
  3 19  1  0
  4  5  2  0
  4  6  4  0
  4  9  4  0
  4 11  3  0
  4 12  3  0
  4 13  2  0
  5 10  3  0
  5 13  4  0
  5 18  1  0
  5 19  3  0
  6 10  4  0
  6 11  3  0
  6 12  4  0
  6 16  1  0
  6 18  1  0
  6 19  2  0
  7 13  2  0
  7 17  4  0
  8  9  2  0
  8 12  4  0
  8 13  1  0
  8 14  4  0
  8 17  1  0
  8 19  1  0
  9 10  2  0
  9 11  4  0
  9 13  2  0
  9 18  2  0
  9 19  3  0
 10 15  2  0
 10 16  3  0
 10 18  4  0
 10 19  3  0
 11 14  1  0
 11 15  4  0
 11 16  2  0
 11 17  2  0
 11 19  1  0
 13 16  4  0
 13 17  2  0
 13 18  3  0
 13 19  2  0
 14 15  2  0
 14 19  2  0
 16 18  2  0
 16 19  1  0
M  END
$$$$

 Created by Python create_sdf_string function

 34  6  0  0  0  0  0  0  0  0999 V2000
   11.3015   -3.9496   22.1631 C   0  0  0  0  0  0  0  0  0  0  0  0
    7.6886   -8.2442   17.4276 C   0  0  0  0  0  0  0  0  0  0  0  0
   10.9358   -4.2629   17.9300 C   0  0  0  0  0  0  0  0  0  0  0  0
    2.4105  -10.5968   18.0875 C   0  0  0  0  0  0  0  0  0  0  0  0
    0.1869  -12.2661   19.6108 C   0  0  0  0  0  0  0  0  0  0  0  0
   10.9177   -3.7616   21.5234 C   0  0  0  0  0  0  0  0  0  0  0  0
    9.0449   -7.1111   17.9264 C   0  0  0  0  0  0  0  0  0  0  0  0
   10.4926   -5.3789   19.8679 C   0  0  0  0  0  0  0  0  0  0  0  0
    3.3592  -10.0993   17.8389 C   0  0  0  0  0  0  0  0  0  0  0  0
    9.9152   -6.5594   18.7128 C   0  0  0  0  0  0  0  0  0  0  0  0
    1.4737  -11.4851   18.7756 C   0  0  0  0  0  0  0  0  0  0  0  0
    8.5657   -6.1437   16.2492 C   0  0  0  0  0  0  0  0  0  0  0  0
    6.4941   -8.4433   17.9074 C   0  0  0  0  0  0  0  0  0  0  0  0
    7.5814   -7.2561   15.2966 C   0  0  0  0  0  0  0  0  0  0  0  0
    5.5934   -8.4087   16.4583 C   0  0  0  0  0  0  0  0  0  0  0  0
    8.4554   -6.6676   16.9854 C   0  0  0  0  0  0  0  0  0  0  0  0
   10.5667   -5.5043   19.4061 C   0  0  0  0  0  0  0  0  0  0  0  0
    9.8661   -6.7069   19.0358 C   0  0  0  0  0  0  0  0  0  0  0  0
   11.6703   -4.7935   20.6222 C   0  0  0  0  0  0  0  0  0  0  0  0
    3.1144   -9.5336   17.1054 C   0  0  0  0  0  0  0  0  0  0  0  0
    4.3741   -8.6556   15.8364 C   0  0  0  0  0  0  0  0  0  0  0  0
    1.2142  -12.1403   21.3726 C   0  0  0  0  0  0  0  0  0  0  0  0
    7.8407   -7.4942   16.6979 C   0  0  0  0  0  0  0  0  0  0  0  0
   10.2016   -4.1193   16.5893 C   0  0  0  0  0  0  0  0  0  0  0  0
   10.3842   -4.2231   17.6104 C   0  0  0  0  0  0  0  0  0  0  0  0
   11.2154   -4.7939   21.8512 O   0  0  0  0  0  0  0  0  0  0  0  0
    2.1328  -11.6995   20.2857 C   0  0  0  0  0  0  0  0  0  0  0  0
    3.3153   -9.6982   17.1298 C   0  0  0  0  0  0  0  0  0  0  0  0
    6.6897   -8.2742   15.9486 C   0  0  0  0  0  0  0  0  0  0  0  0
    1.1695  -11.7291   19.3055 C   0  0  0  0  0  0  0  0  0  0  0  0
    6.3500   -8.0694   18.1763 C   0  0  0  0  0  0  0  0  0  0  0  0
   10.9908   -3.6861   18.6593 C   0  0  0  0  0  0  0  0  0  0  0  0
    1.5406  -12.1893   21.2547 C   0  0  0  0  0  0  0  0  0  0  0  0
    6.0552   -9.1106   17.2126 C   0  0  0  0  0  0  0  0  0  0  0  0
  1  6  1  0
  4 11  4  0
  5 30  4  0
 11 30  4  0
 22 33  4  0
 27 33  4  0
M  END
$$$$

 Created by Python create_sdf_string function

 34 75  0  0  0  0  0  0  0  0999 V2000
   10.8439   -4.0543   22.5847 C   0  0  0  0  0  0  0  0  0  0  0  0
    7.3558   -6.4820   16.3952 O   0  0  0  0  0  0  0  0  0  0  0  0
   12.2491   -3.1187   17.9183 O   0  0  0  0  0  0  0  0  0  0  0  0
    3.0618  -10.2091   18.6902 C   0  0  0  0  0  0  0  0  0  0  0  0
    0.4088  -14.1559   19.6513 C   0  0  0  0  0  0  0  0  0  0  0  0
    3.2725  -10.5084   19.4016 O   0  0  0  0  0  0  0  0  0  0  0  0
    1.2043  -11.4370   19.0459 C   0  0  0  0  0  0  0  0  0  0  0  0
    9.5500   -6.8243   15.7340 O   0  0  0  0  0  0  0  0  0  0  0  0
    7.5403   -9.2220   18.8337 N   0  0  0  0  0  0  0  0  0  0  0  0
    8.6088   -8.4454   14.1420 O   0  0  0  0  0  0  0  0  0  0  0  0
   11.1481   -4.1931   18.6458 P   0  0  0  0  0  0  0  0  0  0  0  0
    4.6990   -9.3055   16.1394 O   0  0  0  0  0  0  0  0  0  0  0  0
    8.2721   -5.6351   16.8322 C   0  0  0  0  0  0  0  0  0  0  0  0
    9.9257   -3.8740   16.4171 I   0  0  0  0  0  0  0  0  0  0  0  0
   11.6905   -3.5642   19.1643 I   0  0  0  0  0  0  0  0  0  0  0  0
   11.2662   -5.2959   21.8187 O   0  0  0  0  0  0  0  0  0  0  0  0
    2.7829  -11.6988   20.0289 C   0  0  0  0  0  0  0  0  0  0  0  0
    0.9903  -12.1015   19.2328 C   0  0  0  0  0  0  0  0  0  0  0  0
   11.0615   -4.5861   19.1173 C   0  0  0  0  0  0  0  0  0  0  0  0
    1.5668  -11.9232   21.3995 C   0  0  0  0  0  0  0  0  0  0  0  0
    4.0196  -10.1410   16.3461 F   0  0  0  0  0  0  0  0  0  0  0  0
   11.7337   -4.1188   21.0929 He  0  0  0  0  0  0  0  0  0  0  0  0
   10.2046   -6.5400   17.3415 He  0  0  0  0  0  0  0  0  0  0  0  0
   11.8629   -5.4156   20.3740 He  0  0  0  0  0  0  0  0  0  0  0  0
    9.7393   -5.5019   19.7296 He  0  0  0  0  0  0  0  0  0  0  0  0
    5.7283   -7.4557   16.3621 He  0  0  0  0  0  0  0  0  0  0  0  0
   10.0496   -8.0243   17.7490 He  0  0  0  0  0  0  0  0  0  0  0  0
    9.7530   -6.3849   20.1068 He  0  0  0  0  0  0  0  0  0  0  0  0
   13.4222   -2.7979   21.3711 He  0  0  0  0  0  0  0  0  0  0  0  0
    0.9740   -8.2267   16.5353 He  0  0  0  0  0  0  0  0  0  0  0  0
    1.1686  -11.8233   21.9003 He  0  0  0  0  0  0  0  0  0  0  0  0
    3.3076   -9.9736   17.1419 He  0  0  0  0  0  0  0  0  0  0  0  0
    6.0526   -9.5221   15.4090 He  0  0  0  0  0  0  0  0  0  0  0  0
    6.4961   -6.7183   19.7575 He  0  0  0  0  0  0  0  0  0  0  0  0
  1  2  4  0
  1 11  3  0
  1 14  1  0
  1 19  4  0
  1 21  1  0
  2  3  1  0
  2  4  3  0
  2  7  1  0
  2  9  4  0
  2 10  1  0
  2 17  2  0
  2 21  4  0
  3  4  1  0
  3  5  3  0
  3  6  3  0
  3  8  2  0
  3 11  2  0
  3 16  4  0
  4  7  3  0
  4  8  4  0
  4 10  4  0
  4 11  2  0
  4 13  2  0
  4 15  1  0
  4 21  3  0
  5  6  1  0
  5  8  1  0
  5  9  3  0
  5 10  4  0
  5 12  3  0
  5 16  3  0
  5 19  4  0
  5 20  2  0
  6  7  2  0
  6  8  4  0
  6  9  4  0
  6 12  4  0
  6 14  2  0
  6 15  2  0
  6 16  1  0
  6 21  1  0
  7 11  2  0
  7 12  3  0
  7 21  2  0
  8  9  4  0
  8 10  4  0
  8 12  3  0
  8 14  3  0
  8 17  4  0
  8 20  1  0
  8 21  3  0
  9 10  2  0
  9 13  2  0
  9 14  3  0
  9 15  1  0
  9 18  4  0
 10 12  3  0
 10 14  1  0
 10 15  3  0
 10 16  3  0
 10 18  3  0
 11 13  4  0
 11 19  1  0
 11 20  4  0
 12 17  1  0
 12 18  3  0
 13 16  2  0
 13 20  4  0
 13 21  1  0
 14 17  1  0
 15 16  2  0
 16 17  3  0
 17 20  4  0
 18 21  4  0
 20 21  2  0
M  END
$$$$

 Created by Python create_sdf_string function

 34  8  0  0  0  0  0  0  0  0999 V2000
   11.0780   -3.8006   22.4578 C   0  0  0  0  0  0  0  0  0  0  0  0
    7.4422   -7.2024   16.4419 C   0  0  0  0  0  0  0  0  0  0  0  0
   11.2867   -3.1879   17.8348 C   0  0  0  0  0  0  0  0  0  0  0  0
    2.9379  -10.4815   18.1739 C   0  0  0  0  0  0  0  0  0  0  0  0
    0.3169  -12.6509   20.3553 C   0  0  0  0  0  0  0  0  0  0  0  0
   11.7160   -3.9179   21.4652 C   0  0  0  0  0  0  0  0  0  0  0  0
    9.5003   -6.1217   17.6032 C   0  0  0  0  0  0  0  0  0  0  0  0
   11.5025   -4.6577   20.6402 C   0  0  0  0  0  0  0  0  0  0  0  0
    3.0961  -10.9130   18.6622 C   0  0  0  0  0  0  0  0  0  0  0  0
   10.1749   -5.4795   18.9767 C   0  0  0  0  0  0  0  0  0  0  0  0
    1.1583  -11.5066   18.8720 C   0  0  0  0  0  0  0  0  0  0  0  0
    8.7443   -6.8918   16.3472 C   0  0  0  0  0  0  0  0  0  0  0  0
    6.8523   -8.2251   17.6720 C   0  0  0  0  0  0  0  0  0  0  0  0
    8.0136   -8.3053   15.2499 C   0  0  0  0  0  0  0  0  0  0  0  0
    5.8965   -8.0443   16.6592 C   0  0  0  0  0  0  0  0  0  0  0  0
    9.1152   -7.5559   17.7994 C   0  0  0  0  0  0  0  0  0  0  0  0
   10.8895   -4.1072   18.1741 C   0  0  0  0  0  0  0  0  0  0  0  0
   10.1624   -6.1345   19.2984 C   0  0  0  0  0  0  0  0  0  0  0  0
   12.5521   -3.2795   21.9066 C   0  0  0  0  0  0  0  0  0  0  0  0
    2.2203   -9.2506   16.6349 C   0  0  0  0  0  0  0  0  0  0  0  0
    4.5977   -8.9544   16.5379 C   0  0  0  0  0  0  0  0  0  0  0  0
    1.2851  -12.2805   21.6428 C   0  0  0  0  0  0  0  0  0  0  0  0
    8.6762   -6.0823   16.8316 C   0  0  0  0  0  0  0  0  0  0  0  0
    9.9768   -4.0101   16.4312 C   0  0  0  0  0  0  0  0  0  0  0  0
   11.3414   -3.6118   19.4476 C   0  0  0  0  0  0  0  0  0  0  0  0
   11.2252   -5.1994   22.0863 O   0  0  0  0  0  0  0  0  0  0  0  0
    2.4453  -11.7506   20.0648 C   0  0  0  0  0  0  0  0  0  0  0  0
    3.2656   -9.7048   17.3586 C   0  0  0  0  0  0  0  0  0  0  0  0
    6.1796   -8.9426   15.7550 C   0  0  0  0  0  0  0  0  0  0  0  0
    0.9472  -11.9801   19.2957 C   0  0  0  0  0  0  0  0  0  0  0  0
    6.7118   -7.3166   18.2346 C   0  0  0  0  0  0  0  0  0  0  0  0
   10.9772   -4.5208   19.1221 C   0  0  0  0  0  0  0  0  0  0  0  0
    1.6740  -12.0186   21.3244 C   0  0  0  0  0  0  0  0  0  0  0  0
    4.2865   -9.2582   16.7397 C   0  0  0  0  0  0  0  0  0  0  0  0
  1  6  1  0
  4  9  4  0
  4 28  1  0
  5 30  4  0
  6 19  1  0
 11 30  4  0
 22 33  4  0
 27 33  4  0
M  END
$$$$

 Created by Python create_sdf_string function

 34 71  0  0  0  0  0  0  0  0999 V2000
    2.5443  -10.5852   18.0755 I   0  0  0  0  0  0  0  0  0  0  0  0
   11.5163   -4.3258   22.2118 Br  0  0  0  0  0  0  0  0  0  0  0  0
   11.2282   -4.0881   19.7310 P   0  0  0  0  0  0  0  0  0  0  0  0
    2.4965  -12.0228   19.5871 N   0  0  0  0  0  0  0  0  0  0  0  0
    0.8369  -11.6579   18.4873 C   0  0  0  0  0  0  0  0  0  0  0  0
    7.6002   -6.1580   16.2749 Cl  0  0  0  0  0  0  0  0  0  0  0  0
    7.8891   -9.5279   15.4335 C   0  0  0  0  0  0  0  0  0  0  0  0
    8.1422   -6.9658   17.9040 Cl  0  0  0  0  0  0  0  0  0  0  0  0
   13.1568   -4.4407   22.1562 N   0  0  0  0  0  0  0  0  0  0  0  0
    2.3448   -9.1978   15.8440 O   0  0  0  0  0  0  0  0  0  0  0  0
    6.2481   -9.7018   17.9301 C   0  0  0  0  0  0  0  0  0  0  0  0
    1.3860  -12.1672   21.4324 C   0  0  0  0  0  0  0  0  0  0  0  0
    8.9451   -4.9317   18.4247 C   0  0  0  0  0  0  0  0  0  0  0  0
    9.4919   -3.7955   16.2202 Cl  0  0  0  0  0  0  0  0  0  0  0  0
   11.2718   -4.4996   20.5655 I   0  0  0  0  0  0  0  0  0  0  0  0
   11.3825   -5.2683   22.0948 O   0  0  0  0  0  0  0  0  0  0  0  0
    2.9095  -11.8482   20.7380 C   0  0  0  0  0  0  0  0  0  0  0  0
    3.1626   -9.7309   17.4192 C   0  0  0  0  0  0  0  0  0  0  0  0
    0.7899  -11.7227   19.3377 C   0  0  0  0  0  0  0  0  0  0  0  0
   10.9032   -4.9188   18.8330 C   0  0  0  0  0  0  0  0  0  0  0  0
    2.1441  -12.2849   21.7114 C   0  0  0  0  0  0  0  0  0  0  0  0
   11.2491   -3.3036   22.4257 He  0  0  0  0  0  0  0  0  0  0  0  0
    8.1448   -5.9657   15.8163 He  0  0  0  0  0  0  0  0  0  0  0  0
   10.3855   -3.2019   17.4676 He  0  0  0  0  0  0  0  0  0  0  0  0
    0.4929  -12.0703   19.7366 He  0  0  0  0  0  0  0  0  0  0  0  0
    8.0740   -5.3086   18.0066 He  0  0  0  0  0  0  0  0  0  0  0  0
    9.7712   -5.9485   19.4090 He  0  0  0  0  0  0  0  0  0  0  0  0
    7.6637   -8.0433   16.0223 He  0  0  0  0  0  0  0  0  0  0  0  0
    4.8685   -7.8220   15.6538 He  0  0  0  0  0  0  0  0  0  0  0  0
   10.9096   -2.2062   17.0472 He  0  0  0  0  0  0  0  0  0  0  0  0
   10.2359   -5.4639   20.0059 He  0  0  0  0  0  0  0  0  0  0  0  0
    6.2460   -9.0441   14.2935 He  0  0  0  0  0  0  0  0  0  0  0  0
    6.4039   -8.0274   17.9044 He  0  0  0  0  0  0  0  0  0  0  0  0
    3.8270   -9.1906   15.9614 He  0  0  0  0  0  0  0  0  0  0  0  0
  1  2  3  0
  1  7  3  0
  1  9  3  0
  1 10  1  0
  1 14  4  0
  1 18  1  0
  1 20  4  0
  2  4  3  0
  2  9  1  0
  2 11  3  0
  2 14  3  0
  3  8  1  0
  3 14  1  0
  3 17  4  0
  3 20  1  0
  3 21  2  0
  4  5  4  0
  4  6  3  0
  4  8  1  0
  4 10  4  0
  4 12  2  0
  4 13  4  0
  4 14  2  0
  5  7  3  0
  5  8  1  0
  5  9  1  0
  5 11  2  0
  5 19  4  0
  6 10  3  0
  6 11  1  0
  6 14  3  0
  6 15  1  0
  6 16  3  0
  6 18  1  0
  6 19  1  0
  6 20  4  0
  6 21  2  0
  7 10  4  0
  7 11  2  0
  7 15  1  0
  7 17  2  0
  7 20  3  0
  7 21  1  0
  8 11  2  0
  8 12  2  0
  8 16  2  0
  8 21  4  0
  9 11  2  0
  9 12  3  0
  9 14  4  0
  9 15  2  0
 10 11  3  0
 10 14  4  0
 10 17  2  0
 10 18  4  0
 10 19  4  0
 11 14  2  0
 11 18  1  0
 11 19  4  0
 11 21  1  0
 12 13  4  0
 12 15  2  0
 12 21  4  0
 13 14  2  0
 13 21  1  0
 14 15  4  0
 15 17  4  0
 15 20  1  0
 17 21  4  0
 18 20  1  0
 19 20  3  0
M  END
$$$$

 Created by Python create_sdf_string function

 34 23  0  0  0  0  0  0  0  0999 V2000
   11.2369   -3.3180   22.5661 C   0  0  0  0  0  0  0  0  0  0  0  0
    8.2157   -5.8659   16.0867 C   0  0  0  0  0  0  0  0  0  0  0  0
   10.4788   -3.7089   17.2016 C   0  0  0  0  0  0  0  0  0  0  0  0
    3.0762  -10.5270   18.0916 C   0  0  0  0  0  0  0  0  0  0  0  0
    0.3511  -12.0706   20.3914 C   0  0  0  0  0  0  0  0  0  0  0  0
   11.7202   -4.1213   22.4638 C   0  0  0  0  0  0  0  0  0  0  0  0
    8.8724   -6.1128   17.6661 C   0  0  0  0  0  0  0  0  0  0  0  0
   11.2376   -3.9178   19.8012 C   0  0  0  0  0  0  0  0  0  0  0  0
    2.4269  -11.3539   19.1599 C   0  0  0  0  0  0  0  0  0  0  0  0
   10.0218   -5.8733   19.1151 C   0  0  0  0  0  0  0  0  0  0  0  0
    0.9977  -11.4670   18.4899 C   0  0  0  0  0  0  0  0  0  0  0  0
    7.9035   -6.4133   16.3256 C   0  0  0  0  0  0  0  0  0  0  0  0
    7.4605   -7.9995   16.0602 C   0  0  0  0  0  0  0  0  0  0  0  0
    7.3774   -8.5504   15.5788 C   0  0  0  0  0  0  0  0  0  0  0  0
    5.0434   -8.4717   16.2284 C   0  0  0  0  0  0  0  0  0  0  0  0
    8.1270   -7.1286   17.4899 C   0  0  0  0  0  0  0  0  0  0  0  0
   10.9092   -3.2886   17.4217 C   0  0  0  0  0  0  0  0  0  0  0  0
   10.4410   -5.5605   19.7373 C   0  0  0  0  0  0  0  0  0  0  0  0
   12.8618   -4.1978   22.4236 C   0  0  0  0  0  0  0  0  0  0  0  0
    2.8974   -9.2254   16.5104 O   0  0  0  0  0  0  0  0  0  0  0  0
    5.2371   -9.3063   17.8265 C   0  0  0  0  0  0  0  0  0  0  0  0
    1.0550  -12.3713   21.5579 C   0  0  0  0  0  0  0  0  0  0  0  0
    9.6722   -5.2936   17.8808 C   0  0  0  0  0  0  0  0  0  0  0  0
    9.5717   -3.9268   16.1123 C   0  0  0  0  0  0  0  0  0  0  0  0
   11.4063   -4.3626   20.8251 C   0  0  0  0  0  0  0  0  0  0  0  0
   11.3268   -5.3067   22.6575 O   0  0  0  0  0  0  0  0  0  0  0  0
    2.7267  -11.9074   20.2012 C   0  0  0  0  0  0  0  0  0  0  0  0
    3.3802   -9.9322   17.6124 C   0  0  0  0  0  0  0  0  0  0  0  0
    6.1140   -8.8476   15.5342 C   0  0  0  0  0  0  0  0  0  0  0  0
    0.3824  -11.8621   19.3430 C   0  0  0  0  0  0  0  0  0  0  0  0
    6.1547   -8.3502   17.5942 C   0  0  0  0  0  0  0  0  0  0  0  0
   10.7859   -4.5573   19.2465 C   0  0  0  0  0  0  0  0  0  0  0  0
    2.1851  -12.3202   21.4387 C   0  0  0  0  0  0  0  0  0  0  0  0
    4.1134   -8.9413   16.3001 C   0  0  0  0  0  0  0  0  0  0  0  0
  1  6  1  0
  2 12  4  0
  3 17  4  0
  3 24  4  0
  4  9  1  0
  4 28  1  0
  5 22  4  0
  5 30  4  0
  6 19  1  0
  6 26  1  0
  7 23  4  0
  8 32  4  0
  9 11  4  0
  9 27  4  0
 10 18  4  0
 11 30  4  0
 13 14  1  0
 14 29  1  0
 15 34  1  0
 18 32  4  0
 21 31  4  0
 22 33  4  0
 27 33  4  0
M  END
$$$$

 Created by Python create_sdf_string function

 34 71  0  0  0  0  0  0  0  0999 V2000
   11.2350   -3.4247   22.6011 C   0  0  0  0  0  0  0  0  0  0  0  0
    8.4814   -6.5851   14.3970 S   0  0  0  0  0  0  0  0  0  0  0  0
    8.8308   -3.0818   18.1797 C   0  0  0  0  0  0  0  0  0  0  0  0
    2.8414  -10.9112   18.0960 C   0  0  0  0  0  0  0  0  0  0  0  0
    7.4422   -6.6583   17.5127 O   0  0  0  0  0  0  0  0  0  0  0  0
    3.3422  -12.5990   18.7638 N   0  0  0  0  0  0  0  0  0  0  0  0
    7.5067   -6.5175   16.5302 F   0  0  0  0  0  0  0  0  0  0  0  0
    5.2437   -7.1157   15.4473 S   0  0  0  0  0  0  0  0  0  0  0  0
   10.8017   -3.0715   17.6111 C   0  0  0  0  0  0  0  0  0  0  0  0
    5.6111   -9.9341   15.1740 S   0  0  0  0  0  0  0  0  0  0  0  0
    4.9160   -8.6181   17.1407 S   0  0  0  0  0  0  0  0  0  0  0  0
    9.1982   -4.0748   16.2537 O   0  0  0  0  0  0  0  0  0  0  0  0
   10.7815   -5.5076   22.9559 O   0  0  0  0  0  0  0  0  0  0  0  0
    2.5968  -12.1961   20.6837 C   0  0  0  0  0  0  0  0  0  0  0  0
    4.1178  -10.2118   17.9356 C   0  0  0  0  0  0  0  0  0  0  0  0
    6.0288   -9.0939   14.7801 F   0  0  0  0  0  0  0  0  0  0  0  0
    0.2580  -11.6810   19.8581 C   0  0  0  0  0  0  0  0  0  0  0  0
   10.8008   -4.3304   18.7442 N   0  0  0  0  0  0  0  0  0  0  0  0
    2.4481  -11.9662   21.3128 C   0  0  0  0  0  0  0  0  0  0  0  0
    5.4280   -8.1458   18.9569 F   0  0  0  0  0  0  0  0  0  0  0  0
   -0.4011  -12.0396   19.7214 He  0  0  0  0  0  0  0  0  0  0  0  0
   11.6292   -4.0992   21.8579 He  0  0  0  0  0  0  0  0  0  0  0  0
   11.5409   -3.4809   18.3084 He  0  0  0  0  0  0  0  0  0  0  0  0
    9.2000   -5.7746   19.2178 He  0  0  0  0  0  0  0  0  0  0  0  0
    0.8555  -11.2595   19.0129 He  0  0  0  0  0  0  0  0  0  0  0  0
    6.5651   -5.6578   15.3993 He  0  0  0  0  0  0  0  0  0  0  0  0
    7.9303   -9.4222   13.2692 He  0  0  0  0  0  0  0  0  0  0  0  0
    7.6002   -6.7109   17.7852 He  0  0  0  0  0  0  0  0  0  0  0  0
    9.9622   -6.0232   19.5495 He  0  0  0  0  0  0  0  0  0  0  0  0
   13.6856   -5.1425   20.4439 He  0  0  0  0  0  0  0  0  0  0  0  0
    0.7049  -12.4796   21.1353 He  0  0  0  0  0  0  0  0  0  0  0  0
    9.0642   -4.4543   17.7351 He  0  0  0  0  0  0  0  0  0  0  0  0
   11.8060   -2.8969   20.9253 He  0  0  0  0  0  0  0  0  0  0  0  0
    6.7327   -8.0698   16.4563 He  0  0  0  0  0  0  0  0  0  0  0  0
  1  2  2  0
  1  3  1  0
  1  5  4  0
  1  9  1  0
  1 18  1  0
  2  5  1  0
  2  6  4  0
  2  7  2  0
  2  9  4  0
  2 11  3  0
  2 12  1  0
  2 14  3  0
  2 18  1  0
  2 19  3  0
  2 20  4  0
  3  4  3  0
  3  6  3  0
  3  7  3  0
  3 12  4  0
  3 14  3  0
  3 17  1  0
  3 19  1  0
  3 20  4  0
  4  5  3  0
  4  8  1  0
  4  9  4  0
  4 11  3  0
  4 12  2  0
  4 13  4  0
  4 15  1  0
  4 16  3  0
  5 10  4  0
  5 12  4  0
  5 14  3  0
  5 15  2  0
  5 16  3  0
  5 18  1  0
  5 19  1  0
  5 20  1  0
  6  8  4  0
  6 10  2  0
  6 16  1  0
  6 17  1  0
  6 20  1  0
  7  8  4  0
  7  9  1  0
  7 14  3  0
  8  9  4  0
  8 14  3  0
  8 16  2  0
  8 18  1  0
  9 13  4  0
  9 17  3  0
  9 18  2  0
  9 20  3  0
 10 12  2  0
 10 13  4  0
 10 15  4  0
 10 18  4  0
 10 20  2  0
 11 12  1  0
 11 18  4  0
 12 13  2  0
 13 15  2  0
 13 17  3  0
 14 19  4  0
 15 16  1  0
 16 18  1  0
 17 20  4  0
 18 19  3  0
 19 20  1  0
M  END
$$$$

 Created by Python create_sdf_string function

 34 13  0  0  0  0  0  0  0  0999 V2000
   11.2344   -3.3174   22.4718 C   0  0  0  0  0  0  0  0  0  0  0  0
    8.2300   -6.9886   15.4109 C   0  0  0  0  0  0  0  0  0  0  0  0
    9.9435   -4.4231   17.6672 C   0  0  0  0  0  0  0  0  0  0  0  0
    3.2707  -10.6803   18.1129 C   0  0  0  0  0  0  0  0  0  0  0  0
    0.1307  -11.9675   20.2549 C   0  0  0  0  0  0  0  0  0  0  0  0
   11.6724   -4.2985   21.7669 C   0  0  0  0  0  0  0  0  0  0  0  0
    7.7351   -6.9577   17.4563 C   0  0  0  0  0  0  0  0  0  0  0  0
   11.1053   -3.6618   18.4155 C   0  0  0  0  0  0  0  0  0  0  0  0
    3.1981  -11.3488   18.7987 C   0  0  0  0  0  0  0  0  0  0  0  0
    9.7753   -5.7979   18.8704 C   0  0  0  0  0  0  0  0  0  0  0  0
    1.0916  -11.3647   18.9032 C   0  0  0  0  0  0  0  0  0  0  0  0
    7.2242   -6.3636   15.6838 C   0  0  0  0  0  0  0  0  0  0  0  0
    7.8460   -6.7504   16.6925 C   0  0  0  0  0  0  0  0  0  0  0  0
    7.7377   -8.9216   14.7463 O   0  0  0  0  0  0  0  0  0  0  0  0
    5.8505   -7.8641   16.0810 C   0  0  0  0  0  0  0  0  0  0  0  0
    8.0710   -6.7788   17.7800 C   0  0  0  0  0  0  0  0  0  0  0  0
   10.8857   -3.5458   17.6009 C   0  0  0  0  0  0  0  0  0  0  0  0
   10.2294   -5.6485   19.2672 C   0  0  0  0  0  0  0  0  0  0  0  0
   12.7155   -4.8743   21.1449 C   0  0  0  0  0  0  0  0  0  0  0  0
    5.4825   -9.7876   16.0107 C   0  0  0  0  0  0  0  0  0  0  0  0
    4.6269   -8.9696   17.3175 C   0  0  0  0  0  0  0  0  0  0  0  0
    0.7556  -12.4037   21.3432 C   0  0  0  0  0  0  0  0  0  0  0  0
    9.4520   -4.9723   17.4210 C   0  0  0  0  0  0  0  0  0  0  0  0
    9.1217   -4.0820   15.9714 O   0  0  0  0  0  0  0  0  0  0  0  0
   11.4680   -3.5468   20.5159 C   0  0  0  0  0  0  0  0  0  0  0  0
   11.4641   -5.1228   22.5253 C   0  0  0  0  0  0  0  0  0  0  0  0
    2.4215  -12.0864   20.2302 C   0  0  0  0  0  0  0  0  0  0  0  0
    4.0371  -10.1704   17.6692 C   0  0  0  0  0  0  0  0  0  0  0  0
    6.0679   -9.1325   15.6440 C   0  0  0  0  0  0  0  0  0  0  0  0
    0.2223  -11.7078   19.5865 C   0  0  0  0  0  0  0  0  0  0  0  0
    6.6272   -8.1849   16.6276 C   0  0  0  0  0  0  0  0  0  0  0  0
   10.8754   -4.3089   19.1079 C   0  0  0  0  0  0  0  0  0  0  0  0
    2.0725  -12.2828   20.9507 C   0  0  0  0  0  0  0  0  0  0  0  0
    5.5247   -8.7261   18.1918 C   0  0  0  0  0  0  0  0  0  0  0  0
  1  6  1  0
  4  9  1  0
  4 28  1  0
  5 22  4  0
  5 30  4  0
  6 19  1  0
  6 25  1  0
  6 26  1  0
  8 17  4  0
 11 30  4  0
 20 29  4  0
 22 33  4  0
 27 33  4  0
M  END
$$$$

 Created by Python create_sdf_string function

 34 86  0  0  0  0  0  0  0  0999 V2000
   11.5026   -3.3498   22.4091 C   0  0  0  0  0  0  0  0  0  0  0  0
    3.3717  -10.1989   17.5009 C   0  0  0  0  0  0  0  0  0  0  0  0
    0.7998  -10.7606   19.1777 P   0  0  0  0  0  0  0  0  0  0  0  0
   11.5606   -4.5624   21.6277 C   0  0  0  0  0  0  0  0  0  0  0  0
   11.6565   -3.3016   19.3806 P   0  0  0  0  0  0  0  0  0  0  0  0
    0.8817  -11.3306   18.8291 C   0  0  0  0  0  0  0  0  0  0  0  0
    8.9784   -6.2098   15.4256 Se  0  0  0  0  0  0  0  0  0  0  0  0
    7.4280   -9.3279   16.8156 B   0  0  0  0  0  0  0  0  0  0  0  0
   10.0451   -5.2084   19.5942 Se  0  0  0  0  0  0  0  0  0  0  0  0
   14.1791   -5.9484   23.5215 O   0  0  0  0  0  0  0  0  0  0  0  0
    5.3349   -9.6475   15.4563 S   0  0  0  0  0  0  0  0  0  0  0  0
    3.8385   -8.3744   18.0881 S   0  0  0  0  0  0  0  0  0  0  0  0
    0.6778  -12.5623   21.0362 I   0  0  0  0  0  0  0  0  0  0  0  0
    8.9730   -4.9409   17.9752 N   0  0  0  0  0  0  0  0  0  0  0  0
    9.2986   -4.7254   16.1755 O   0  0  0  0  0  0  0  0  0  0  0  0
   11.3680   -2.5746   18.7418 C   0  0  0  0  0  0  0  0  0  0  0  0
   10.8961   -4.9521   22.4976 C   0  0  0  0  0  0  0  0  0  0  0  0
    1.5378  -12.2431   20.3163 C   0  0  0  0  0  0  0  0  0  0  0  0
    3.8886  -10.1868   17.5535 C   0  0  0  0  0  0  0  0  0  0  0  0
    6.6754   -8.5248   16.7618 C   0  0  0  0  0  0  0  0  0  0  0  0
    0.9588  -12.0151   19.0221 C   0  0  0  0  0  0  0  0  0  0  0  0
    5.8478   -7.6076   16.3458 N   0  0  0  0  0  0  0  0  0  0  0  0
    2.1089  -12.4067   20.5275 C   0  0  0  0  0  0  0  0  0  0  0  0
    8.0736   -6.2376   16.6090 He  0  0  0  0  0  0  0  0  0  0  0  0
   10.5887   -2.6367   17.1737 He  0  0  0  0  0  0  0  0  0  0  0  0
    8.0595   -6.9270   17.5385 He  0  0  0  0  0  0  0  0  0  0  0  0
    2.7656  -10.6884   18.2517 He  0  0  0  0  0  0  0  0  0  0  0  0
   10.4349   -4.8971   20.0362 He  0  0  0  0  0  0  0  0  0  0  0  0
    7.5710   -7.2815   17.6660 He  0  0  0  0  0  0  0  0  0  0  0  0
    6.2751   -8.7626   15.9650 He  0  0  0  0  0  0  0  0  0  0  0  0
    9.7631   -7.0392   19.3345 He  0  0  0  0  0  0  0  0  0  0  0  0
   10.8363   -1.9962   17.1866 He  0  0  0  0  0  0  0  0  0  0  0  0
   11.1306   -4.6950   19.2028 He  0  0  0  0  0  0  0  0  0  0  0  0
    3.9518   -9.0033   16.4541 He  0  0  0  0  0  0  0  0  0  0  0  0
  1 19  2  0
  1 20  2  0
  1 21  4  0
  1 22  4  0
  2  5  1  0
  2  8  4  0
  2  9  1  0
  2 10  4  0
  2 11  3  0
  2 16  1  0
  2 17  2  0
  2 19  1  0
  3  8  1  0
  3 11  1  0
  3 17  4  0
  3 18  3  0
  3 20  4  0
  3 23  4  0
  4  7  3  0
  4  8  4  0
  4 10  4  0
  4 11  4  0
  4 17  1  0
  4 20  2  0
  4 21  1  0
  5 10  4  0
  5 11  4  0
  5 12  1  0
  5 14  3  0
  5 18  4  0
  5 19  3  0
  6  7  3  0
  6  8  4  0
  6 11  2  0
  6 13  2  0
  6 14  3  0
  6 15  1  0
  6 16  2  0
  6 21  4  0
  6 22  1  0
  7  9  4  0
  7 10  1  0
  7 12  4  0
  7 18  3  0
  7 19  3  0
  7 20  3  0
  7 21  3  0
  7 22  3  0
  8  9  4  0
  8 11  2  0
  8 19  4  0
  8 21  4  0
  8 23  2  0
  9 12  2  0
  9 23  2  0
 10 14  2  0
 10 17  2  0
 10 19  4  0
 10 20  2  0
 10 21  2  0
 10 22  1  0
 11 13  2  0
 11 14  1  0
 11 15  2  0
 11 17  3  0
 11 19  3  0
 12 13  2  0
 12 15  2  0
 12 18  4  0
 12 19  2  0
 12 20  4  0
 13 14  3  0
 13 20  1  0
 14 15  3  0
 14 16  3  0
 14 18  3  0
 14 19  4  0
 14 22  2  0
 15 23  2  0
 16 20  4  0
 17 18  3  0
 18 20  4  0
 19 21  1  0
 19 22  2  0
 19 23  1  0
 20 21  4  0
M  END
$$$$

 Created by Python create_sdf_string function

 34  9  0  0  0  0  0  0  0  0999 V2000
   11.6509   -3.5530   22.2150 C   0  0  0  0  0  0  0  0  0  0  0  0
    8.3765   -6.1951   16.5759 C   0  0  0  0  0  0  0  0  0  0  0  0
   10.9314   -3.4109   17.1799 C   0  0  0  0  0  0  0  0  0  0  0  0
    3.2018  -10.1386   17.6802 C   0  0  0  0  0  0  0  0  0  0  0  0
    1.3683  -11.3690   19.2108 C   0  0  0  0  0  0  0  0  0  0  0  0
   11.6943   -4.5977   21.9899 C   0  0  0  0  0  0  0  0  0  0  0  0
    8.3208   -6.9056   17.4397 C   0  0  0  0  0  0  0  0  0  0  0  0
   11.2629   -3.5182   19.9157 C   0  0  0  0  0  0  0  0  0  0  0  0
    2.5798  -10.5622   18.1470 C   0  0  0  0  0  0  0  0  0  0  0  0
   10.9917   -4.7665   20.3189 C   0  0  0  0  0  0  0  0  0  0  0  0
    0.9696  -11.4429   18.7497 C   0  0  0  0  0  0  0  0  0  0  0  0
    8.5877   -6.0356   16.1036 C   0  0  0  0  0  0  0  0  0  0  0  0
    7.7886   -7.3894   17.4689 C   0  0  0  0  0  0  0  0  0  0  0  0
    7.3706   -8.7354   16.6555 C   0  0  0  0  0  0  0  0  0  0  0  0
    6.1505   -8.5210   16.1266 C   0  0  0  0  0  0  0  0  0  0  0  0
    9.7703   -6.8930   18.7717 C   0  0  0  0  0  0  0  0  0  0  0  0
   11.0930   -3.1492   17.2043 C   0  0  0  0  0  0  0  0  0  0  0  0
   10.5947   -5.2554   19.6333 C   0  0  0  0  0  0  0  0  0  0  0  0
   12.7887   -5.0438   23.1129 O   0  0  0  0  0  0  0  0  0  0  0  0
    5.0270   -9.3106   16.0531 C   0  0  0  0  0  0  0  0  0  0  0  0
    4.1510   -8.9816   17.5701 C   0  0  0  0  0  0  0  0  0  0  0  0
    0.8474  -12.4376   21.0733 C   0  0  0  0  0  0  0  0  0  0  0  0
    9.6893   -5.2264   17.6151 C   0  0  0  0  0  0  0  0  0  0  0  0
    9.4509   -4.5907   16.3066 C   0  0  0  0  0  0  0  0  0  0  0  0
   11.0986   -3.1986   18.7254 C   0  0  0  0  0  0  0  0  0  0  0  0
   11.4644   -4.9796   22.6479 C   0  0  0  0  0  0  0  0  0  0  0  0
    1.4698  -11.9746   20.2471 C   0  0  0  0  0  0  0  0  0  0  0  0
    3.8178  -10.0281   17.6642 C   0  0  0  0  0  0  0  0  0  0  0  0
    6.5917   -8.4241   16.9071 C   0  0  0  0  0  0  0  0  0  0  0  0
    0.9691  -11.6674   18.9306 C   0  0  0  0  0  0  0  0  0  0  0  0
    6.0886   -7.8050   16.4741 C   0  0  0  0  0  0  0  0  0  0  0  0
   10.5911   -4.7641   19.0399 C   0  0  0  0  0  0  0  0  0  0  0  0
    1.7914  -12.0750   20.4640 C   0  0  0  0  0  0  0  0  0  0  0  0
    3.8191   -9.0490   16.6338 C   0  0  0  0  0  0  0  0  0  0  0  0
  3 17  4  0
  4  9  4  0
  4 28  4  0
  6 26  1  0
  8 25  4  0
 11 30  4  0
 18 32  4  0
 22 33  4  0
 27 33  4  0
M  END
$$$$

 Created by Python create_sdf_string function

 34 52  0  0  0  0  0  0  0  0999 V2000
   11.8497   -4.0309   22.3542 C   0  0  0  0  0  0  0  0  0  0  0  0
    8.9680   -6.7409   16.5228 O   0  0  0  0  0  0  0  0  0  0  0  0
   11.7310   -4.4924   18.3992 C   0  0  0  0  0  0  0  0  0  0  0  0
    3.1179  -10.0422   17.5040 O   0  0  0  0  0  0  0  0  0  0  0  0
    1.6434  -12.1932   19.7302 O   0  0  0  0  0  0  0  0  0  0  0  0
   11.9606   -4.0396   21.4411 C   0  0  0  0  0  0  0  0  0  0  0  0
    8.9383   -7.7724   17.3973 O   0  0  0  0  0  0  0  0  0  0  0  0
    1.0597  -11.9343   18.9784 C   0  0  0  0  0  0  0  0  0  0  0  0
    7.8553   -8.5395   17.6500 O   0  0  0  0  0  0  0  0  0  0  0  0
    8.1344  -10.1752   16.9187 C   0  0  0  0  0  0  0  0  0  0  0  0
    9.2386   -7.7278   18.2779 Cl  0  0  0  0  0  0  0  0  0  0  0  0
    1.0153  -12.0819   20.9222 C   0  0  0  0  0  0  0  0  0  0  0  0
   11.1362   -7.3822   16.2183 Se  0  0  0  0  0  0  0  0  0  0  0  0
   10.2706   -2.5843   18.1196 C   0  0  0  0  0  0  0  0  0  0  0  0
   11.1831   -5.2559   23.0727 C   0  0  0  0  0  0  0  0  0  0  0  0
    0.8450  -11.6130   20.4786 C   0  0  0  0  0  0  0  0  0  0  0  0
    3.7840  -10.7408   14.9367 N   0  0  0  0  0  0  0  0  0  0  0  0
   10.3229   -5.2728   19.1400 C   0  0  0  0  0  0  0  0  0  0  0  0
    2.0015  -12.1169   20.8612 C   0  0  0  0  0  0  0  0  0  0  0  0
   10.5362   -4.4062   20.2005 He  0  0  0  0  0  0  0  0  0  0  0  0
    3.6350  -10.4460   20.3852 He  0  0  0  0  0  0  0  0  0  0  0  0
   10.2009   -4.0379   20.3457 He  0  0  0  0  0  0  0  0  0  0  0  0
    9.1676   -6.8416   16.4092 He  0  0  0  0  0  0  0  0  0  0  0  0
    5.3492   -8.6669   14.8905 He  0  0  0  0  0  0  0  0  0  0  0  0
    9.6560   -3.4205   17.6005 He  0  0  0  0  0  0  0  0  0  0  0  0
   10.4527   -4.7158   20.1015 He  0  0  0  0  0  0  0  0  0  0  0  0
   12.1664   -6.5167   23.1989 He  0  0  0  0  0  0  0  0  0  0  0  0
    5.5274   -9.9022   17.1100 He  0  0  0  0  0  0  0  0  0  0  0  0
    4.3196   -8.0410   19.2559 He  0  0  0  0  0  0  0  0  0  0  0  0
    9.7684   -4.3564   16.3528 He  0  0  0  0  0  0  0  0  0  0  0  0
    3.5043   -9.7836   17.7808 He  0  0  0  0  0  0  0  0  0  0  0  0
    0.9030  -11.4771   18.6076 He  0  0  0  0  0  0  0  0  0  0  0  0
    5.7162   -5.5944   16.4691 He  0  0  0  0  0  0  0  0  0  0  0  0
    3.0201   -8.0754   16.7865 He  0  0  0  0  0  0  0  0  0  0  0  0
  1  2  4  0
  1  3  2  0
  1 11  1  0
  1 14  1  0
  2  3  2  0
  2  7  1  0
  2  8  1  0
  2  9  2  0
  2 13  4  0
  2 15  4  0
  3  4  3  0
  3  6  3  0
  3 10  1  0
  3 15  3  0
  3 17  3  0
  4  8  3  0
  4  9  2  0
  5  8  2  0
  5 10  4  0
  5 11  4  0
  5 12  2  0
  5 14  4  0
  5 16  1  0
  5 17  2  0
  5 18  4  0
  6  7  3  0
  6 10  4  0
  6 14  3  0
  7 10  4  0
  7 12  2  0
  7 14  4  0
  7 15  3  0
  7 17  2  0
  7 18  4  0
  8 13  3  0
  8 15  3  0
  9 12  1  0
  9 18  1  0
  9 19  2  0
 10 11  4  0
 10 12  3  0
 11 12  3  0
 11 13  2  0
 12 16  1  0
 12 19  1  0
 13 15  3  0
 13 18  2  0
 14 15  2  0
 14 16  2  0
 14 17  3  0
 15 17  2  0
 16 19  4  0
M  END
$$$$

 Created by Python create_sdf_string function

 34 10  0  0  0  0  0  0  0  0999 V2000
   11.8644   -3.9755   22.6896 C   0  0  0  0  0  0  0  0  0  0  0  0
    8.8078   -6.3621   16.7111 C   0  0  0  0  0  0  0  0  0  0  0  0
   10.9338   -4.3489   18.4678 C   0  0  0  0  0  0  0  0  0  0  0  0
    2.9472  -10.1080   17.5295 O   0  0  0  0  0  0  0  0  0  0  0  0
    1.8309  -11.5717   19.8910 C   0  0  0  0  0  0  0  0  0  0  0  0
   11.8180   -4.1316   21.5214 C   0  0  0  0  0  0  0  0  0  0  0  0
    8.6531   -7.5441   17.3526 C   0  0  0  0  0  0  0  0  0  0  0  0
   11.0357   -4.6130   20.3400 C   0  0  0  0  0  0  0  0  0  0  0  0
    2.9600  -11.3690   19.1351 C   0  0  0  0  0  0  0  0  0  0  0  0
   10.7884   -4.1422   20.7014 C   0  0  0  0  0  0  0  0  0  0  0  0
    1.0184  -11.7348   18.6744 C   0  0  0  0  0  0  0  0  0  0  0  0
    8.5180   -6.5340   16.6456 C   0  0  0  0  0  0  0  0  0  0  0  0
    7.4113   -8.3256   17.2717 C   0  0  0  0  0  0  0  0  0  0  0  0
    7.3744   -8.7324   16.8292 C   0  0  0  0  0  0  0  0  0  0  0  0
    5.5395   -8.4611   15.8392 C   0  0  0  0  0  0  0  0  0  0  0  0
    9.2641   -7.5615   18.0684 C   0  0  0  0  0  0  0  0  0  0  0  0
   10.4226   -3.7792   16.9573 C   0  0  0  0  0  0  0  0  0  0  0  0
   10.9051   -4.8227   20.4362 C   0  0  0  0  0  0  0  0  0  0  0  0
   11.6683   -5.0806   23.1816 C   0  0  0  0  0  0  0  0  0  0  0  0
    5.4385   -9.3444   17.1922 C   0  0  0  0  0  0  0  0  0  0  0  0
    5.2293   -8.7407   17.9700 C   0  0  0  0  0  0  0  0  0  0  0  0
    0.7528  -12.1258   21.4580 C   0  0  0  0  0  0  0  0  0  0  0  0
    9.8146   -6.3196   17.3906 C   0  0  0  0  0  0  0  0  0  0  0  0
    9.7993   -4.3133   16.4042 C   0  0  0  0  0  0  0  0  0  0  0  0
   10.7856   -3.4250   17.6242 C   0  0  0  0  0  0  0  0  0  0  0  0
   11.4422   -4.9033   22.7079 C   0  0  0  0  0  0  0  0  0  0  0  0
    0.9671  -11.8318   20.5543 C   0  0  0  0  0  0  0  0  0  0  0  0
    3.3647   -9.9358   17.5248 C   0  0  0  0  0  0  0  0  0  0  0  0
    3.8917   -9.3135   16.0322 C   0  0  0  0  0  0  0  0  0  0  0  0
    1.1208  -11.3415   18.5062 C   0  0  0  0  0  0  0  0  0  0  0  0
    6.6422   -6.7135   16.0901 C   0  0  0  0  0  0  0  0  0  0  0  0
   10.4230   -5.5271   18.9619 C   0  0  0  0  0  0  0  0  0  0  0  0
    2.0652  -12.0584   20.8839 C   0  0  0  0  0  0  0  0  0  0  0  0
    4.0072   -8.7122   16.6576 C   0  0  0  0  0  0  0  0  0  0  0  0
  2 12  1  0
  4 28  1  0
  6  8  4  0
 11 30  4  0
 13 14  1  0
 17 24  4  0
 17 25  4  0
 19 26  4  0
 22 27  1  0
 27 33  4  0
M  END
$$$$

 Created by Python create_sdf_string function

 34 75  0  0  0  0  0  0  0  0999 V2000
   11.7058   -4.0985   22.6532 C   0  0  0  0  0  0  0  0  0  0  0  0
    9.5326   -6.0741   14.4743 N   0  0  0  0  0  0  0  0  0  0  0  0
   11.9429   -5.3115   18.9831 N   0  0  0  0  0  0  0  0  0  0  0  0
    2.7566  -10.2685   17.6878 O   0  0  0  0  0  0  0  0  0  0  0  0
   11.9859   -4.0253   21.3684 O   0  0  0  0  0  0  0  0  0  0  0  0
   11.1093   -4.4244   19.9891 C   0  0  0  0  0  0  0  0  0  0  0  0
    2.5359   -9.5472   20.2267 P   0  0  0  0  0  0  0  0  0  0  0  0
    1.0379  -11.7594   19.1073 C   0  0  0  0  0  0  0  0  0  0  0  0
    8.3541   -8.0042   16.9872 N   0  0  0  0  0  0  0  0  0  0  0  0
    4.9391   -6.8557   15.7931 C   0  0  0  0  0  0  0  0  0  0  0  0
   13.4298   -5.1124   19.3928 F   0  0  0  0  0  0  0  0  0  0  0  0
    0.9957  -12.3421   21.3442 C   0  0  0  0  0  0  0  0  0  0  0  0
   10.7845   -3.3877   17.9519 I   0  0  0  0  0  0  0  0  0  0  0  0
   11.2422   -5.1665   22.6346 C   0  0  0  0  0  0  0  0  0  0  0  0
    0.6946  -12.2355   20.3414 C   0  0  0  0  0  0  0  0  0  0  0  0
    3.2923   -9.7159   17.7636 C   0  0  0  0  0  0  0  0  0  0  0  0
    5.5301   -6.4918   14.0068 O   0  0  0  0  0  0  0  0  0  0  0  0
   10.6607   -5.3549   18.9032 C   0  0  0  0  0  0  0  0  0  0  0  0
    1.6682  -11.6204   20.8609 C   0  0  0  0  0  0  0  0  0  0  0  0
    2.3463   -9.6430   15.2710 N   0  0  0  0  0  0  0  0  0  0  0  0
    3.8095  -10.5237   19.5530 He  0  0  0  0  0  0  0  0  0  0  0  0
   10.5259   -6.0201   19.6443 He  0  0  0  0  0  0  0  0  0  0  0  0
   10.6970   -2.0199   21.2655 He  0  0  0  0  0  0  0  0  0  0  0  0
    8.0391   -6.7497   16.8631 He  0  0  0  0  0  0  0  0  0  0  0  0
    7.1072   -8.9123   16.4299 He  0  0  0  0  0  0  0  0  0  0  0  0
   10.3416   -6.6625   18.1421 He  0  0  0  0  0  0  0  0  0  0  0  0
   10.5964   -4.1318   15.4063 He  0  0  0  0  0  0  0  0  0  0  0  0
   13.2207   -5.4255   20.5800 He  0  0  0  0  0  0  0  0  0  0  0  0
    4.6901   -8.5275   17.0672 He  0  0  0  0  0  0  0  0  0  0  0  0
    5.2973   -7.9123   17.4294 He  0  0  0  0  0  0  0  0  0  0  0  0
    8.9064   -7.8310   16.6192 He  0  0  0  0  0  0  0  0  0  0  0  0
    9.9856   -4.3669   17.2389 He  0  0  0  0  0  0  0  0  0  0  0  0
    4.6703   -8.5526   15.9017 He  0  0  0  0  0  0  0  0  0  0  0  0
    1.9189  -10.6906   18.2348 He  0  0  0  0  0  0  0  0  0  0  0  0
  1  2  4  0
  1  3  3  0
  1  6  1  0
  1  8  3  0
  1 11  4  0
  1 14  4  0
  2  6  1  0
  2 10  1  0
  2 11  3  0
  2 14  1  0
  2 17  3  0
  3  4  2  0
  3  8  1  0
  3  9  2  0
  3 10  3  0
  3 11  3  0
  3 12  4  0
  3 13  2  0
  3 19  3  0
  3 20  4  0
  4  5  3  0
  4  6  4  0
  4 11  1  0
  4 16  1  0
  4 17  4  0
  4 18  1  0
  4 20  3  0
  5  7  1  0
  5  9  3  0
  5 10  1  0
  5 20  4  0
  6 10  4  0
  6 12  1  0
  6 13  4  0
  6 14  4  0
  6 18  4  0
  7  8  4  0
  7  9  4  0
  7 11  3  0
  7 14  2  0
  7 16  1  0
  7 19  4  0
  7 20  2  0
  8 10  3  0
  8 13  2  0
  8 15  4  0
  8 18  4  0
  9 10  2  0
  9 11  2  0
  9 13  3  0
  9 16  4  0
  9 18  3  0
  9 20  2  0
 10 12  3  0
 10 16  4  0
 10 17  2  0
 10 18  2  0
 10 20  3  0
 11 12  2  0
 11 16  1  0
 11 17  2  0
 11 18  4  0
 11 19  1  0
 11 20  2  0
 12 15  1  0
 12 17  1  0
 13 15  2  0
 13 18  3  0
 13 20  3  0
 14 16  3  0
 15 16  4  0
 15 19  4  0
 15 20  4  0
 17 19  4  0
 19 20  4  0
M  END
$$$$

 Created by Python create_sdf_string function

 34 14  0  0  0  0  0  0  0  0999 V2000
   11.6929   -4.4581   22.6362 C   0  0  0  0  0  0  0  0  0  0  0  0
    8.6840   -5.7280   15.9324 N   0  0  0  0  0  0  0  0  0  0  0  0
   11.3037   -5.1885   18.7150 C   0  0  0  0  0  0  0  0  0  0  0  0
    2.6615   -9.9007   17.3271 C   0  0  0  0  0  0  0  0  0  0  0  0
    3.7745  -10.5738   18.5826 C   0  0  0  0  0  0  0  0  0  0  0  0
   11.8945   -3.7223   21.4611 C   0  0  0  0  0  0  0  0  0  0  0  0
   10.8559   -5.7258   19.1964 C   0  0  0  0  0  0  0  0  0  0  0  0
   11.3542   -4.4899   20.2885 C   0  0  0  0  0  0  0  0  0  0  0  0
    3.0236  -11.3938   19.4800 C   0  0  0  0  0  0  0  0  0  0  0  0
   11.1196   -3.3074   21.7642 C   0  0  0  0  0  0  0  0  0  0  0  0
    0.7790  -11.6556   19.0111 C   0  0  0  0  0  0  0  0  0  0  0  0
    8.0465   -6.6598   16.4483 C   0  0  0  0  0  0  0  0  0  0  0  0
    8.2774   -7.8173   17.0674 C   0  0  0  0  0  0  0  0  0  0  0  0
    7.0974   -8.0243   16.4584 C   0  0  0  0  0  0  0  0  0  0  0  0
    5.3869   -7.6184   15.9797 C   0  0  0  0  0  0  0  0  0  0  0  0
    9.7901   -6.5661   18.0874 C   0  0  0  0  0  0  0  0  0  0  0  0
   10.0892   -4.2140   16.2544 C   0  0  0  0  0  0  0  0  0  0  0  0
   12.5966   -5.5679   19.3590 C   0  0  0  0  0  0  0  0  0  0  0  0
   12.5993   -5.2097   20.7414 C   0  0  0  0  0  0  0  0  0  0  0  0
    4.7347   -8.7284   17.1102 C   0  0  0  0  0  0  0  0  0  0  0  0
    5.4449   -8.3508   17.3647 C   0  0  0  0  0  0  0  0  0  0  0  0
    0.5116  -12.5843   21.5186 C   0  0  0  0  0  0  0  0  0  0  0  0
    8.5468   -7.4705   16.8907 C   0  0  0  0  0  0  0  0  0  0  0  0
   10.0587   -4.4836   16.9936 C   0  0  0  0  0  0  0  0  0  0  0  0
   10.8275   -3.7253   17.6274 C   0  0  0  0  0  0  0  0  0  0  0  0
   11.5000   -4.8685   22.5488 C   0  0  0  0  0  0  0  0  0  0  0  0
    0.9346  -12.0755   20.3121 C   0  0  0  0  0  0  0  0  0  0  0  0
    3.3736   -9.8478   17.5874 C   0  0  0  0  0  0  0  0  0  0  0  0
    4.3357   -8.4102   16.2215 C   0  0  0  0  0  0  0  0  0  0  0  0
    1.4367  -11.0367   18.3834 C   0  0  0  0  0  0  0  0  0  0  0  0
    6.0961   -6.8140   15.3108 C   0  0  0  0  0  0  0  0  0  0  0  0
   10.7975   -5.2569   18.7749 C   0  0  0  0  0  0  0  0  0  0  0  0
    2.2161  -11.8738   20.6019 C   0  0  0  0  0  0  0  0  0  0  0  0
    2.7775   -8.9990   16.0607 N   0  0  0  0  0  0  0  0  0  0  0  0
  1 26  4  0
  2 12  4  0
  4 28  1  0
  5  9  4  0
  5 28  4  0
  6 10  4  0
  9 33  4  0
 11 27  4  0
 11 30  4  0
 13 23  4  0
 17 24  4  0
 20 21  4  0
 22 27  1  0
 27 33  4  0
M  END
$$$$

 Created by Python create_sdf_string function

 34 46  0  0  0  0  0  0  0  0999 V2000
   12.2998   -4.7454   22.6610 C   0  0  0  0  0  0  0  0  0  0  0  0
    2.8045   -9.8258   17.6179 C   0  0  0  0  0  0  0  0  0  0  0  0
   11.9082   -3.5362   20.9880 C   0  0  0  0  0  0  0  0  0  0  0  0
   11.2281   -3.8551   20.5026 O   0  0  0  0  0  0  0  0  0  0  0  0
    5.4858   -9.8366   20.9609 F   0  0  0  0  0  0  0  0  0  0  0  0
   11.4837   -3.6390   21.5858 P   0  0  0  0  0  0  0  0  0  0  0  0
    0.9929  -10.6626   19.2678 C   0  0  0  0  0  0  0  0  0  0  0  0
    9.1445   -5.9265   17.3063 C   0  0  0  0  0  0  0  0  0  0  0  0
    5.0376   -7.0996   16.7494 O   0  0  0  0  0  0  0  0  0  0  0  0
   10.9146   -5.7101   19.2761 N   0  0  0  0  0  0  0  0  0  0  0  0
    0.1268  -12.5149   21.9063 N   0  0  0  0  0  0  0  0  0  0  0  0
    9.7606   -5.0193   16.3071 C   0  0  0  0  0  0  0  0  0  0  0  0
   11.7171   -4.5590   22.5543 C   0  0  0  0  0  0  0  0  0  0  0  0
    0.3076  -12.0777   20.4427 C   0  0  0  0  0  0  0  0  0  0  0  0
    3.4009   -9.5700   16.9847 C   0  0  0  0  0  0  0  0  0  0  0  0
    5.7522   -7.9032   17.0912 C   0  0  0  0  0  0  0  0  0  0  0  0
    1.4009  -11.0153   18.8280 Cl  0  0  0  0  0  0  0  0  0  0  0  0
    1.8456  -11.8569   20.4372 S   0  0  0  0  0  0  0  0  0  0  0  0
    3.6948   -7.1290   15.9811 O   0  0  0  0  0  0  0  0  0  0  0  0
    9.8500   -6.4548   15.0219 He  0  0  0  0  0  0  0  0  0  0  0  0
   11.4992   -6.8294   18.3059 He  0  0  0  0  0  0  0  0  0  0  0  0
    3.4224  -10.8783   18.7200 He  0  0  0  0  0  0  0  0  0  0  0  0
   11.5620   -5.1179   17.6845 He  0  0  0  0  0  0  0  0  0  0  0  0
    9.3449   -7.9476   17.8655 He  0  0  0  0  0  0  0  0  0  0  0  0
    6.3294   -9.3677   16.7787 He  0  0  0  0  0  0  0  0  0  0  0  0
   10.7623   -3.8587   16.4050 He  0  0  0  0  0  0  0  0  0  0  0  0
   13.0034   -6.1590   19.1938 He  0  0  0  0  0  0  0  0  0  0  0  0
   13.2485   -4.9274   20.4886 He  0  0  0  0  0  0  0  0  0  0  0  0
    4.9210   -9.2137   16.6974 He  0  0  0  0  0  0  0  0  0  0  0  0
    5.4992   -7.5350   17.9766 He  0  0  0  0  0  0  0  0  0  0  0  0
    8.4972   -8.1495   16.5884 He  0  0  0  0  0  0  0  0  0  0  0  0
   11.0010   -3.7119   18.0314 He  0  0  0  0  0  0  0  0  0  0  0  0
    6.5074   -6.8875   15.2463 He  0  0  0  0  0  0  0  0  0  0  0  0
   11.1505   -5.4036   18.6115 He  0  0  0  0  0  0  0  0  0  0  0  0
  1  8  4  0
  1 12  4  0
  1 13  4  0
  1 19  3  0
  2  8  4  0
  2  9  1  0
  2 12  2  0
  2 15  1  0
  2 16  1  0
  3  5  2  0
  3  8  4  0
  4  6  2  0
  4 18  2  0
  4 19  2  0
  5  9  4  0
  5 10  2  0
  5 11  2  0
  6  8  1  0
  6  9  3  0
  6 10  4  0
  6 12  1  0
  6 13  2  0
  6 16  3  0
  6 18  2  0
  7  9  2  0
  7 10  4  0
  7 14  4  0
  7 16  3  0
  7 17  3  0
  8 11  2  0
  8 13  2  0
  8 14  3  0
  8 18  4  0
  9 16  3  0
  9 18  3  0
 10 15  3  0
 10 16  2  0
 10 18  4  0
 11 13  2  0
 11 14  1  0
 11 19  3  0
 12 19  4  0
 13 16  4  0
 13 19  2  0
 15 19  3  0
 17 19  4  0
M  END
$$$$

 Created by Python create_sdf_string function

 34 12  0  0  0  0  0  0  0  0999 V2000
   12.3347   -4.8579   22.6822 C   0  0  0  0  0  0  0  0  0  0  0  0
    8.8149   -6.0272   16.1419 C   0  0  0  0  0  0  0  0  0  0  0  0
   10.5189   -6.5283   18.4694 C   0  0  0  0  0  0  0  0  0  0  0  0
    2.7298   -9.9304   17.5886 C   0  0  0  0  0  0  0  0  0  0  0  0
    2.8914  -11.2406   19.0139 C   0  0  0  0  0  0  0  0  0  0  0  0
   11.5715   -3.8154   21.1426 C   0  0  0  0  0  0  0  0  0  0  0  0
   10.9296   -4.6368   17.7103 C   0  0  0  0  0  0  0  0  0  0  0  0
   11.1599   -3.6614   20.6974 C   0  0  0  0  0  0  0  0  0  0  0  0
    4.5583  -10.3984   18.6446 C   0  0  0  0  0  0  0  0  0  0  0  0
   11.3616   -3.6976   21.7620 C   0  0  0  0  0  0  0  0  0  0  0  0
    0.7430  -11.1387   19.1912 C   0  0  0  0  0  0  0  0  0  0  0  0
    9.1911   -6.2560   17.1346 C   0  0  0  0  0  0  0  0  0  0  0  0
    8.8776   -7.7196   17.7004 C   0  0  0  0  0  0  0  0  0  0  0  0
    6.6077   -8.7432   16.9069 C   0  0  0  0  0  0  0  0  0  0  0  0
    5.4747   -7.7863   16.6874 C   0  0  0  0  0  0  0  0  0  0  0  0
   11.2255   -5.3233   19.4434 C   0  0  0  0  0  0  0  0  0  0  0  0
   10.3892   -3.9955   16.3705 C   0  0  0  0  0  0  0  0  0  0  0  0
   12.5182   -5.7906   19.4682 C   0  0  0  0  0  0  0  0  0  0  0  0
   12.5208   -5.2785   20.7707 C   0  0  0  0  0  0  0  0  0  0  0  0
    4.6552   -9.0358   17.0206 C   0  0  0  0  0  0  0  0  0  0  0  0
    5.6976   -7.9324   17.5643 C   0  0  0  0  0  0  0  0  0  0  0  0
    0.1796  -12.3120   21.5023 N   0  0  0  0  0  0  0  0  0  0  0  0
    8.0847   -7.9405   16.6515 C   0  0  0  0  0  0  0  0  0  0  0  0
    9.6850   -4.8124   16.2685 C   0  0  0  0  0  0  0  0  0  0  0  0
   10.8801   -3.6756   17.8193 C   0  0  0  0  0  0  0  0  0  0  0  0
   11.8829   -4.5908   22.6843 C   0  0  0  0  0  0  0  0  0  0  0  0
    0.7209  -11.8293   20.4152 C   0  0  0  0  0  0  0  0  0  0  0  0
    3.1729   -9.5927   17.2579 C   0  0  0  0  0  0  0  0  0  0  0  0
    5.8174   -8.2567   17.0038 C   0  0  0  0  0  0  0  0  0  0  0  0
    1.7284  -10.8692   18.7153 C   0  0  0  0  0  0  0  0  0  0  0  0
    6.9088   -7.1311   15.8237 C   0  0  0  0  0  0  0  0  0  0  0  0
   11.0996   -5.3050   18.4989 C   0  0  0  0  0  0  0  0  0  0  0  0
    2.0249  -11.9815   20.4437 N   0  0  0  0  0  0  0  0  0  0  0  0
    3.9962   -7.9647   16.2724 O   0  0  0  0  0  0  0  0  0  0  0  0
  1 26  4  0
  4 28  1  0
  5  9  4  0
  5 30  4  0
  5 33  4  0
  6  8  4  0
  6 10  4  0
 11 27  4  0
 11 30  4  0
 17 24  4  0
 22 27  1  0
 27 33  4  0
M  END
$$$$

 Created by Python create_sdf_string function

 34 52  0  0  0  0  0  0  0  0999 V2000
   12.8164   -4.6834   22.3975 C   0  0  0  0  0  0  0  0  0  0  0  0
    8.9906   -5.3311   13.3329 F   0  0  0  0  0  0  0  0  0  0  0  0
    3.2454   -9.8295   18.1938 C   0  0  0  0  0  0  0  0  0  0  0  0
   11.8258   -3.6583   20.7131 C   0  0  0  0  0  0  0  0  0  0  0  0
    9.7730   -4.0291   18.5086 C   0  0  0  0  0  0  0  0  0  0  0  0
   10.6418   -5.2928   22.6987 S   0  0  0  0  0  0  0  0  0  0  0  0
    0.4483  -11.3042   19.5397 C   0  0  0  0  0  0  0  0  0  0  0  0
    9.6756   -6.0373   22.3189 O   0  0  0  0  0  0  0  0  0  0  0  0
    8.2243   -5.4660   16.5770 N   0  0  0  0  0  0  0  0  0  0  0  0
    7.1522   -6.4194   15.4875 N   0  0  0  0  0  0  0  0  0  0  0  0
    0.1990  -11.8868   21.7487 N   0  0  0  0  0  0  0  0  0  0  0  0
    9.8320   -5.5610   16.3090 C   0  0  0  0  0  0  0  0  0  0  0  0
   12.5393   -2.7749   18.0805 F   0  0  0  0  0  0  0  0  0  0  0  0
   11.7893   -4.6838   22.6756 C   0  0  0  0  0  0  0  0  0  0  0  0
    0.2835  -11.5100   20.3508 C   0  0  0  0  0  0  0  0  0  0  0  0
    3.2254   -9.5638   16.9050 C   0  0  0  0  0  0  0  0  0  0  0  0
    4.1039   -9.8547   17.1855 O   0  0  0  0  0  0  0  0  0  0  0  0
    1.4002  -10.5831   18.8309 C   0  0  0  0  0  0  0  0  0  0  0  0
   10.9705   -5.2758   18.9386 C   0  0  0  0  0  0  0  0  0  0  0  0
    2.3202  -11.9709   20.7688 N   0  0  0  0  0  0  0  0  0  0  0  0
   11.7081   -6.9209   18.7929 He  0  0  0  0  0  0  0  0  0  0  0  0
    4.2189  -11.0813   19.1896 He  0  0  0  0  0  0  0  0  0  0  0  0
   11.3033   -3.1511   20.9098 He  0  0  0  0  0  0  0  0  0  0  0  0
    2.0898   -9.2268   19.2335 He  0  0  0  0  0  0  0  0  0  0  0  0
    9.3333   -6.8425   17.4591 He  0  0  0  0  0  0  0  0  0  0  0  0
    8.8172   -9.0916   17.3723 He  0  0  0  0  0  0  0  0  0  0  0  0
    6.2321   -9.0980   17.1740 He  0  0  0  0  0  0  0  0  0  0  0  0
    6.0977   -8.1724   17.5288 He  0  0  0  0  0  0  0  0  0  0  0  0
   12.7722   -4.4524   20.2095 He  0  0  0  0  0  0  0  0  0  0  0  0
   11.6832   -6.5278   21.9325 He  0  0  0  0  0  0  0  0  0  0  0  0
    5.8575   -8.2873   17.7077 He  0  0  0  0  0  0  0  0  0  0  0  0
    7.7912   -8.1718   17.4259 He  0  0  0  0  0  0  0  0  0  0  0  0
    5.7768   -7.6431   17.0955 He  0  0  0  0  0  0  0  0  0  0  0  0
    2.0488   -8.0393   14.7239 He  0  0  0  0  0  0  0  0  0  0  0  0
  1  7  1  0
  1 14  4  0
  1 17  4  0
  1 18  2  0
  2  4  2  0
  2  5  2  0
  2  7  2  0
  2 10  4  0
  2 12  2  0
  2 14  3  0
  2 15  1  0
  2 16  3  0
  2 19  3  0
  2 20  1  0
  3  8  1  0
  3  9  4  0
  3 10  3  0
  3 16  1  0
  4  9  2  0
  4 14  3  0
  4 15  3  0
  5  6  3  0
  5 10  4  0
  5 11  2  0
  5 17  3  0
  6  7  1  0
  6  9  4  0
  6 10  4  0
  6 13  4  0
  6 14  2  0
  6 16  4  0
  6 18  2  0
  6 19  1  0
  7  8  2  0
  7 10  2  0
  7 11  3  0
  7 15  4  0
  7 18  3  0
  8 10  4  0
  8 14  2  0
  9 15  1  0
  9 18  2  0
  9 19  1  0
  9 20  2  0
 10 16  4  0
 12 17  1  0
 12 19  3  0
 13 16  3  0
 13 20  2  0
 16 17  4  0
 17 18  4  0
 17 20  1  0
M  END
$$$$

 Created by Python create_sdf_string function

 34 14  0  0  0  0  0  0  0  0999 V2000
   13.0139   -4.5158   22.4686 C   0  0  0  0  0  0  0  0  0  0  0  0
    8.3167   -5.3341   15.6979 O   0  0  0  0  0  0  0  0  0  0  0  0
   10.5800   -6.3865   18.7483 C   0  0  0  0  0  0  0  0  0  0  0  0
    3.3384   -9.9892   17.7832 C   0  0  0  0  0  0  0  0  0  0  0  0
    3.1105  -11.3692   19.3712 C   0  0  0  0  0  0  0  0  0  0  0  0
   11.4961   -3.9164   20.4622 C   0  0  0  0  0  0  0  0  0  0  0  0
   10.4692   -4.4059   18.2733 C   0  0  0  0  0  0  0  0  0  0  0  0
   11.4083   -3.7364   20.5541 C   0  0  0  0  0  0  0  0  0  0  0  0
    2.1386  -10.7424   18.7182 C   0  0  0  0  0  0  0  0  0  0  0  0
   11.3187   -4.6297   22.6550 C   0  0  0  0  0  0  0  0  0  0  0  0
    0.3585  -11.1832   19.3959 C   0  0  0  0  0  0  0  0  0  0  0  0
    9.1157   -6.8550   17.7070 C   0  0  0  0  0  0  0  0  0  0  0  0
    8.4421   -8.1847   17.5178 C   0  0  0  0  0  0  0  0  0  0  0  0
    6.0166   -8.7421   17.2614 C   0  0  0  0  0  0  0  0  0  0  0  0
    5.8486   -8.0536   17.1705 C   0  0  0  0  0  0  0  0  0  0  0  0
   10.8313   -5.2740   21.9042 C   0  0  0  0  0  0  0  0  0  0  0  0
    8.7598   -5.7137   16.6963 C   0  0  0  0  0  0  0  0  0  0  0  0
   12.0624   -4.3523   20.3362 C   0  0  0  0  0  0  0  0  0  0  0  0
   11.3411   -5.1763   22.0711 C   0  0  0  0  0  0  0  0  0  0  0  0
    5.8264   -8.3449   17.3389 C   0  0  0  0  0  0  0  0  0  0  0  0
    7.3111   -6.5999   16.1170 C   0  0  0  0  0  0  0  0  0  0  0  0
    0.2065  -12.0498   21.7440 N   0  0  0  0  0  0  0  0  0  0  0  0
    7.8666   -7.7714   17.4351 C   0  0  0  0  0  0  0  0  0  0  0  0
    9.6043   -5.1365   16.7373 C   0  0  0  0  0  0  0  0  0  0  0  0
   11.3055   -3.0783   18.3391 C   0  0  0  0  0  0  0  0  0  0  0  0
   12.2181   -4.5353   22.8513 C   0  0  0  0  0  0  0  0  0  0  0  0
    0.5878  -11.6615   20.5299 C   0  0  0  0  0  0  0  0  0  0  0  0
    3.2136   -9.5066   17.2098 C   0  0  0  0  0  0  0  0  0  0  0  0
    4.0992   -9.2266   17.1174 C   0  0  0  0  0  0  0  0  0  0  0  0
    1.1907  -10.7602   18.4941 C   0  0  0  0  0  0  0  0  0  0  0  0
    5.4371   -7.9299   16.8512 C   0  0  0  0  0  0  0  0  0  0  0  0
   10.7909   -5.1524   18.8597 C   0  0  0  0  0  0  0  0  0  0  0  0
    2.2003  -11.9280   20.4597 N   0  0  0  0  0  0  0  0  0  0  0  0
    2.7865   -8.5465   15.8681 C   0  0  0  0  0  0  0  0  0  0  0  0
  1 26  4  0
  3 32  4  0
  4 28  1  0
  5  9  4  0
  5 33  4  0
  6  8  4  0
  9 30  4  0
 11 27  4  0
 11 30  4  0
 13 23  1  0
 17 24  4  0
 22 27  1  0
 27 33  4  0
 28 29  4  0
M  END
$$$$

 Created by Python create_sdf_string function

 34 74  0  0  0  0  0  0  0  0999 V2000
   13.0535   -4.6832   22.3162 S   0  0  0  0  0  0  0  0  0  0  0  0
    7.5344   -6.7453   15.0575 C   0  0  0  0  0  0  0  0  0  0  0  0
    2.9112  -10.2003   17.6031 C   0  0  0  0  0  0  0  0  0  0  0  0
    2.0531  -11.5974   18.1478 C   0  0  0  0  0  0  0  0  0  0  0  0
   12.0279   -4.1263   20.3919 C   0  0  0  0  0  0  0  0  0  0  0  0
   10.6599   -4.9657   18.4799 N   0  0  0  0  0  0  0  0  0  0  0  0
    0.3427  -10.8552   18.2744 O   0  0  0  0  0  0  0  0  0  0  0  0
   10.0486   -4.8195   23.0818 Se  0  0  0  0  0  0  0  0  0  0  0  0
    0.5313  -11.1578   19.3740 C   0  0  0  0  0  0  0  0  0  0  0  0
    5.1660   -8.1982   16.4450 N   0  0  0  0  0  0  0  0  0  0  0  0
   12.7222   -5.0667   23.1700 O   0  0  0  0  0  0  0  0  0  0  0  0
    7.9396   -5.7791   18.2394 F   0  0  0  0  0  0  0  0  0  0  0  0
    9.4541   -3.9326   20.1505 C   0  0  0  0  0  0  0  0  0  0  0  0
   10.7820   -6.7961   21.6819 P   0  0  0  0  0  0  0  0  0  0  0  0
    5.5466   -8.4362   18.7393 P   0  0  0  0  0  0  0  0  0  0  0  0
    0.1776  -12.2234   21.6240 N   0  0  0  0  0  0  0  0  0  0  0  0
    9.1410   -4.9933   15.8251 C   0  0  0  0  0  0  0  0  0  0  0  0
   12.2753   -4.4237   22.6065 C   0  0  0  0  0  0  0  0  0  0  0  0
    3.0152   -9.5417   17.9052 C   0  0  0  0  0  0  0  0  0  0  0  0
    1.3750  -10.9060   19.2771 C   0  0  0  0  0  0  0  0  0  0  0  0
    5.7270   -8.6267   16.7787 C   0  0  0  0  0  0  0  0  0  0  0  0
    2.3880  -12.1610   20.4653 N   0  0  0  0  0  0  0  0  0  0  0  0
    2.8064   -7.8157   14.5273 C   0  0  0  0  0  0  0  0  0  0  0  0
   10.6859   -5.4814   18.2822 He  0  0  0  0  0  0  0  0  0  0  0  0
   10.5831   -3.6458   20.1074 He  0  0  0  0  0  0  0  0  0  0  0  0
    9.6663   -6.2335   18.2381 He  0  0  0  0  0  0  0  0  0  0  0  0
    7.3849   -8.3737   16.3888 He  0  0  0  0  0  0  0  0  0  0  0  0
    4.7250   -7.7520   15.7711 He  0  0  0  0  0  0  0  0  0  0  0  0
    7.8995   -7.8672   15.2480 He  0  0  0  0  0  0  0  0  0  0  0  0
    9.9719   -7.5718   15.8543 He  0  0  0  0  0  0  0  0  0  0  0  0
   11.1016   -3.5229   19.3633 He  0  0  0  0  0  0  0  0  0  0  0  0
    1.5541  -11.6570   20.8825 He  0  0  0  0  0  0  0  0  0  0  0  0
    2.6710   -9.5720   17.9192 He  0  0  0  0  0  0  0  0  0  0  0  0
   10.6640   -4.9980   19.0586 He  0  0  0  0  0  0  0  0  0  0  0  0
  1  4  3  0
  1  5  4  0
  1 12  2  0
  1 23  2  0
  2  3  3  0
  2  4  3  0
  2  5  4  0
  2 13  4  0
  2 15  3  0
  2 16  1  0
  2 19  1  0
  2 20  3  0
  3  4  3  0
  3 10  4  0
  3 17  3  0
  3 19  1  0
  4  5  3  0
  4  6  2  0
  4  9  2  0
  4 13  3  0
  4 16  1  0
  4 18  1  0
  4 21  4  0
  5  6  2  0
  5 10  2  0
  5 13  3  0
  5 17  4  0
  6  8  2  0
  6 13  4  0
  6 16  3  0
  6 20  2  0
  6 23  3  0
  7  8  3  0
  7  9  4  0
  7 12  1  0
  7 18  1  0
  7 22  2  0
  8 11  1  0
  8 12  3  0
  8 13  2  0
  8 22  3  0
  9 11  2  0
  9 15  1  0
  9 20  4  0
  9 21  1  0
  9 23  3  0
 10 14  1  0
 10 19  4  0
 10 20  1  0
 11 13  1  0
 11 14  2  0
 11 15  4  0
 11 16  2  0
 11 17  1  0
 11 19  2  0
 11 20  1  0
 11 21  2  0
 12 17  1  0
 12 20  1  0
 12 23  3  0
 13 15  4  0
 13 17  4  0
 13 21  2  0
 14 16  1  0
 14 17  4  0
 14 18  4  0
 14 20  2  0
 14 21  1  0
 15 20  2  0
 15 21  4  0
 16 21  1  0
 18 19  1  0
 19 23  2  0
 21 22  3  0
M  END
$$$$

 Created by Python create_sdf_string function

 34 13  0  0  0  0  0  0  0  0999 V2000
   13.0571   -4.4835   22.2661 C   0  0  0  0  0  0  0  0  0  0  0  0
    7.7034   -6.8474   15.7823 C   0  0  0  0  0  0  0  0  0  0  0  0
   10.0877   -5.3104   17.8370 C   0  0  0  0  0  0  0  0  0  0  0  0
    2.6580  -10.0158   17.5843 C   0  0  0  0  0  0  0  0  0  0  0  0
    2.4909  -11.2708   18.9869 C   0  0  0  0  0  0  0  0  0  0  0  0
   12.2838   -4.1371   20.7644 C   0  0  0  0  0  0  0  0  0  0  0  0
   10.2280   -4.8235   18.0448 N   0  0  0  0  0  0  0  0  0  0  0  0
   11.2638   -3.8626   20.2474 C   0  0  0  0  0  0  0  0  0  0  0  0
    0.5822  -10.7967   18.2835 C   0  0  0  0  0  0  0  0  0  0  0  0
   11.1161   -4.2485   23.0114 C   0  0  0  0  0  0  0  0  0  0  0  0
    0.3068  -11.3706   19.4487 C   0  0  0  0  0  0  0  0  0  0  0  0
    9.2910   -6.4020   17.7685 C   0  0  0  0  0  0  0  0  0  0  0  0
    7.1762   -7.9728   16.8283 C   0  0  0  0  0  0  0  0  0  0  0  0
    4.8748   -8.1154   15.9867 C   0  0  0  0  0  0  0  0  0  0  0  0
    4.8816   -8.5665   16.7296 C   0  0  0  0  0  0  0  0  0  0  0  0
   12.4795   -4.7664   23.6329 O   0  0  0  0  0  0  0  0  0  0  0  0
    8.4733   -6.5611   17.5894 C   0  0  0  0  0  0  0  0  0  0  0  0
   10.2408   -4.2872   20.0591 C   0  0  0  0  0  0  0  0  0  0  0  0
   11.0832   -4.9640   21.5816 C   0  0  0  0  0  0  0  0  0  0  0  0
    5.8367   -8.5822   18.0796 C   0  0  0  0  0  0  0  0  0  0  0  0
    7.8104   -7.6903   15.7248 C   0  0  0  0  0  0  0  0  0  0  0  0
    0.3749  -12.2851   21.6720 N   0  0  0  0  0  0  0  0  0  0  0  0
    8.7783   -7.1813   16.4213 C   0  0  0  0  0  0  0  0  0  0  0  0
    9.1836   -5.0500   16.1670 C   0  0  0  0  0  0  0  0  0  0  0  0
   11.1498   -3.7505   19.1345 C   0  0  0  0  0  0  0  0  0  0  0  0
   12.1389   -4.5339   22.7868 C   0  0  0  0  0  0  0  0  0  0  0  0
    1.2707  -12.0237   20.8943 C   0  0  0  0  0  0  0  0  0  0  0  0
    3.2509   -9.6297   17.4178 C   0  0  0  0  0  0  0  0  0  0  0  0
    2.5394   -9.7412   17.2650 C   0  0  0  0  0  0  0  0  0  0  0  0
    1.4219  -11.2094   19.1215 C   0  0  0  0  0  0  0  0  0  0  0  0
    5.5887   -8.4166   16.9394 C   0  0  0  0  0  0  0  0  0  0  0  0
   10.6502   -5.0254   18.9212 C   0  0  0  0  0  0  0  0  0  0  0  0
    2.3252  -12.0548   20.5700 N   0  0  0  0  0  0  0  0  0  0  0  0
    3.2445   -8.4233   15.7890 C   0  0  0  0  0  0  0  0  0  0  0  0
  1  6  4  0
  1 26  4  0
  4 28  1  0
  5 30  4  0
  5 33  4  0
  6  8  4  0
  9 11  4  0
 11 30  4  0
 12 17  4  0
 20 31  4  0
 22 27  4  0
 27 33  4  0
 28 29  4  0
M  END
$$$$

 Created by Python create_sdf_string function

 34105  0  0  0  0  0  0  0  0999 V2000
   12.9326   -4.0434   22.5073 C   0  0  0  0  0  0  0  0  0  0  0  0
   11.5194   -5.2252   17.6045 F   0  0  0  0  0  0  0  0  0  0  0  0
    2.9640  -10.2840   17.5346 C   0  0  0  0  0  0  0  0  0  0  0  0
    1.9040  -11.2088   20.0293 O   0  0  0  0  0  0  0  0  0  0  0  0
   11.9104   -4.0608   20.9830 C   0  0  0  0  0  0  0  0  0  0  0  0
   10.0611   -4.4035   18.2078 S   0  0  0  0  0  0  0  0  0  0  0  0
   10.6119   -2.4892   20.4574 P   0  0  0  0  0  0  0  0  0  0  0  0
    1.7672  -11.3404   18.1444 C   0  0  0  0  0  0  0  0  0  0  0  0
   11.7578   -5.2999   21.6973 O   0  0  0  0  0  0  0  0  0  0  0  0
    0.5427  -11.7253   19.9924 C   0  0  0  0  0  0  0  0  0  0  0  0
    9.5992   -5.7122   18.1246 F   0  0  0  0  0  0  0  0  0  0  0  0
    8.2221   -8.4430   17.5810 N   0  0  0  0  0  0  0  0  0  0  0  0
    6.8475   -8.5494   14.2189 C   0  0  0  0  0  0  0  0  0  0  0  0
    5.3588   -9.2797   17.9786 O   0  0  0  0  0  0  0  0  0  0  0  0
    8.8462   -2.7599   19.3809 S   0  0  0  0  0  0  0  0  0  0  0  0
   11.2239   -5.8315   21.7363 P   0  0  0  0  0  0  0  0  0  0  0  0
    6.7584   -8.4063   19.4852 Cl  0  0  0  0  0  0  0  0  0  0  0  0
    0.2497  -11.9331   22.3477 N   0  0  0  0  0  0  0  0  0  0  0  0
   10.4450   -5.9717   15.3455 S   0  0  0  0  0  0  0  0  0  0  0  0
    8.9267   -4.7225   15.8705 C   0  0  0  0  0  0  0  0  0  0  0  0
    9.0577   -4.0375   18.3063 P   0  0  0  0  0  0  0  0  0  0  0  0
   12.1125   -4.4589   23.5588 C   0  0  0  0  0  0  0  0  0  0  0  0
    3.7762   -9.7285   17.4095 C   0  0  0  0  0  0  0  0  0  0  0  0
    1.7899   -8.5633   17.9836 O   0  0  0  0  0  0  0  0  0  0  0  0
    1.8986  -11.5772   19.0103 C   0  0  0  0  0  0  0  0  0  0  0  0
   10.3497   -4.8298   18.7334 C   0  0  0  0  0  0  0  0  0  0  0  0
    2.2034  -12.3096   20.9305 N   0  0  0  0  0  0  0  0  0  0  0  0
    5.7506   -6.7323   14.4705 He  0  0  0  0  0  0  0  0  0  0  0  0
   11.7100   -3.0891   23.8963 He  0  0  0  0  0  0  0  0  0  0  0  0
    7.6561   -6.0528   17.6718 He  0  0  0  0  0  0  0  0  0  0  0  0
    8.1815   -7.9608   15.9333 He  0  0  0  0  0  0  0  0  0  0  0  0
    0.8259  -12.0859   21.3346 He  0  0  0  0  0  0  0  0  0  0  0  0
    4.5424   -8.4899   17.2020 He  0  0  0  0  0  0  0  0  0  0  0  0
    3.0659   -8.1435   16.2143 He  0  0  0  0  0  0  0  0  0  0  0  0
  1  5  4  0
  1 14  3  0
  1 17  1  0
  1 19  4  0
  2  6  3  0
  2 14  2  0
  2 15  1  0
  2 24  3  0
  2 25  2  0
  2 26  4  0
  3  9  1  0
  3 12  4  0
  3 15  4  0
  3 16  4  0
  3 19  4  0
  3 23  1  0
  3 24  2  0
  4  5  3  0
  4  6  4  0
  4  7  4  0
  4  8  4  0
  4  9  2  0
  4 15  4  0
  4 19  1  0
  4 25  3  0
  4 26  2  0
  4 27  1  0
  5  9  2  0
  5 13  3  0
  5 14  4  0
  5 19  3  0
  6  8  2  0
  6 10  4  0
  6 12  3  0
  6 13  2  0
  6 21  2  0
  6 24  2  0
  6 25  4  0
  6 27  2  0
  7 10  1  0
  7 15  3  0
  7 19  3  0
  7 21  4  0
  8  9  2  0
  8 11  4  0
  8 12  2  0
  8 16  2  0
  8 17  3  0
  8 24  3  0
  8 25  2  0
  9 10  1  0
  9 11  3  0
  9 13  1  0
  9 14  2  0
  9 16  4  0
  9 19  1  0
  9 20  4  0
  9 22  1  0
  9 23  2  0
  9 27  2  0
 10 12  2  0
 10 16  2  0
 10 21  1  0
 10 24  1  0
 10 25  2  0
 10 26  2  0
 11 14  4  0
 11 16  3  0
 11 17  2  0
 11 25  3  0
 12 15  3  0
 12 16  3  0
 12 18  2  0
 12 24  1  0
 13 15  1  0
 13 21  3  0
 13 22  4  0
 13 24  1  0
 13 26  1  0
 13 27  1  0
 14 20  1  0
 14 23  2  0
 15 21  2  0
 15 22  4  0
 15 23  2  0
 16 19  1  0
 16 21  3  0
 16 22  3  0
 16 24  2  0
 16 25  2  0
 16 27  4  0
 17 18  3  0
 17 19  4  0
 17 25  4  0
 18 19  1  0
 18 24  1  0
 19 22  3  0
 19 23  2  0
 19 24  4  0
 19 26  1  0
 20 23  1  0
 21 22  1  0
 21 23  4  0
 23 25  4  0
 24 25  2  0
M  END
$$$$

 Created by Python create_sdf_string function

 34 20  0  0  0  0  0  0  0  0999 V2000
   12.8200   -4.0053   22.5273 C   0  0  0  0  0  0  0  0  0  0  0  0
    5.8419   -7.5508   15.4895 C   0  0  0  0  0  0  0  0  0  0  0  0
   10.8267   -4.8250   17.7440 C   0  0  0  0  0  0  0  0  0  0  0  0
    2.8930  -10.0300   17.6501 C   0  0  0  0  0  0  0  0  0  0  0  0
    2.2367  -11.7625   19.8631 C   0  0  0  0  0  0  0  0  0  0  0  0
   12.1651   -4.0507   21.1877 C   0  0  0  0  0  0  0  0  0  0  0  0
   10.1840   -4.5965   17.9510 C   0  0  0  0  0  0  0  0  0  0  0  0
   11.0288   -3.4695   20.3045 C   0  0  0  0  0  0  0  0  0  0  0  0
    1.8414  -10.9615   18.3890 C   0  0  0  0  0  0  0  0  0  0  0  0
   11.4125   -4.8166   21.9196 C   0  0  0  0  0  0  0  0  0  0  0  0
    0.4963  -11.6377   20.0019 C   0  0  0  0  0  0  0  0  0  0  0  0
    9.3527   -6.1086   17.9600 C   0  0  0  0  0  0  0  0  0  0  0  0
    8.0088   -7.8081   17.3742 C   0  0  0  0  0  0  0  0  0  0  0  0
    6.9247   -7.9564   15.4937 C   0  0  0  0  0  0  0  0  0  0  0  0
    5.2729   -8.9677   17.6738 C   0  0  0  0  0  0  0  0  0  0  0  0
   11.6243   -3.7795   23.7702 C   0  0  0  0  0  0  0  0  0  0  0  0
    8.2090   -6.7857   17.6179 C   0  0  0  0  0  0  0  0  0  0  0  0
    9.9796   -3.7950   19.5045 C   0  0  0  0  0  0  0  0  0  0  0  0
   11.2590   -4.8400   21.7492 C   0  0  0  0  0  0  0  0  0  0  0  0
    6.4696   -8.2494   18.1106 C   0  0  0  0  0  0  0  0  0  0  0  0
    7.8692   -7.5493   15.8416 C   0  0  0  0  0  0  0  0  0  0  0  0
    0.2065  -12.1796   22.4033 N   0  0  0  0  0  0  0  0  0  0  0  0
    9.0953   -5.8858   15.8942 C   0  0  0  0  0  0  0  0  0  0  0  0
    8.8855   -4.8238   16.0301 C   0  0  0  0  0  0  0  0  0  0  0  0
    9.7734   -4.5403   18.2016 C   0  0  0  0  0  0  0  0  0  0  0  0
   12.1780   -4.4058   23.6776 C   0  0  0  0  0  0  0  0  0  0  0  0
    0.8963  -11.9932   21.2825 C   0  0  0  0  0  0  0  0  0  0  0  0
    3.7698   -9.7151   17.6661 C   0  0  0  0  0  0  0  0  0  0  0  0
    1.9605   -9.4906   16.9082 O   0  0  0  0  0  0  0  0  0  0  0  0
    1.6470  -11.4302   19.0888 C   0  0  0  0  0  0  0  0  0  0  0  0
    5.0407   -8.6759   17.1122 C   0  0  0  0  0  0  0  0  0  0  0  0
   10.7404   -5.0787   18.8365 C   0  0  0  0  0  0  0  0  0  0  0  0
    2.1819  -12.2413   21.1674 N   0  0  0  0  0  0  0  0  0  0  0  0
    3.6329   -8.6262   16.3242 C   0  0  0  0  0  0  0  0  0  0  0  0
  1  6  4  0
  1 26  4  0
  2 14  4  0
  3 32  4  0
  4 28  1  0
  5 30  4  0
  5 33  4  0
  6  8  4  0
  8 18  4  0
  9 30  4  0
 10 19  4  0
 11 27  4  0
 11 30  4  0
 12 17  4  0
 14 21  4  0
 15 31  4  0
 16 26  4  0
 22 27  1  0
 23 24  1  0
 27 33  4  0
M  END
$$$$

 Created by Python create_sdf_string function

 34 68  0  0  0  0  0  0  0  0999 V2000
   13.3033   -3.6756   22.1786 Cl  0  0  0  0  0  0  0  0  0  0  0  0
    2.7908   -9.9639   17.8257 C   0  0  0  0  0  0  0  0  0  0  0  0
   12.4249   -4.2221   21.3305 C   0  0  0  0  0  0  0  0  0  0  0  0
    2.6454  -11.8818   19.9671 N   0  0  0  0  0  0  0  0  0  0  0  0
   12.8266   -3.7365   21.5866 C   0  0  0  0  0  0  0  0  0  0  0  0
    7.5325   -6.2104   16.7808 Cl  0  0  0  0  0  0  0  0  0  0  0  0
    6.5643   -9.2382   15.4164 C   0  0  0  0  0  0  0  0  0  0  0  0
   11.6165   -3.3541   24.4269 Br  0  0  0  0  0  0  0  0  0  0  0  0
    7.7827   -6.2779   19.1343 F   0  0  0  0  0  0  0  0  0  0  0  0
   12.3989   -4.9539   19.8921 N   0  0  0  0  0  0  0  0  0  0  0  0
    4.8337   -9.4945   18.8274 P   0  0  0  0  0  0  0  0  0  0  0  0
    7.9239   -8.3340   15.2193 C   0  0  0  0  0  0  0  0  0  0  0  0
    7.8954   -6.5854   15.1048 C   0  0  0  0  0  0  0  0  0  0  0  0
    9.1527   -4.5656   16.0571 C   0  0  0  0  0  0  0  0  0  0  0  0
   12.7805   -5.0239   23.9046 F   0  0  0  0  0  0  0  0  0  0  0  0
    1.5345  -12.0659   21.2591 C   0  0  0  0  0  0  0  0  0  0  0  0
    3.7706   -9.7466   17.4072 C   0  0  0  0  0  0  0  0  0  0  0  0
    1.2430  -11.5259   18.9573 N   0  0  0  0  0  0  0  0  0  0  0  0
   10.0026   -4.8362   19.0522 C   0  0  0  0  0  0  0  0  0  0  0  0
    2.0936  -12.3000   20.7662 N   0  0  0  0  0  0  0  0  0  0  0  0
    3.5359   -9.9760   15.0450 N   0  0  0  0  0  0  0  0  0  0  0  0
    6.1087   -8.3484   15.0493 He  0  0  0  0  0  0  0  0  0  0  0  0
   11.6732   -5.8489   17.5674 He  0  0  0  0  0  0  0  0  0  0  0  0
    0.9047  -11.1933   21.3391 He  0  0  0  0  0  0  0  0  0  0  0  0
    9.9011   -3.2134   18.2835 He  0  0  0  0  0  0  0  0  0  0  0  0
   10.6249   -3.9708   18.9589 He  0  0  0  0  0  0  0  0  0  0  0  0
    0.6109  -11.5200   20.0695 He  0  0  0  0  0  0  0  0  0  0  0  0
    9.5912   -6.7887   17.4340 He  0  0  0  0  0  0  0  0  0  0  0  0
    4.3978   -8.8500   17.4050 He  0  0  0  0  0  0  0  0  0  0  0  0
    9.5309   -3.3584   20.1934 He  0  0  0  0  0  0  0  0  0  0  0  0
   -0.2063  -11.5233   22.5893 He  0  0  0  0  0  0  0  0  0  0  0  0
    9.7960   -6.3017   19.1516 He  0  0  0  0  0  0  0  0  0  0  0  0
    0.7891   -8.5034   16.5396 He  0  0  0  0  0  0  0  0  0  0  0  0
    6.0106   -8.4445   16.1890 He  0  0  0  0  0  0  0  0  0  0  0  0
  1  4  1  0
  1  5  3  0
  1  7  1  0
  1  8  3  0
  1  9  4  0
  1 10  1  0
  1 11  4  0
  1 12  2  0
  1 14  4  0
  1 15  4  0
  1 20  3  0
  2  3  1  0
  2 11  2  0
  2 17  1  0
  2 19  1  0
  3  5  2  0
  3  8  3  0
  3 11  2  0
  3 21  3  0
  4  5  3  0
  4  7  1  0
  4 10  4  0
  4 13  4  0
  4 14  4  0
  4 16  4  0
  4 19  1  0
  4 20  2  0
  5  7  4  0
  5 11  1  0
  5 14  1  0
  5 15  2  0
  5 16  3  0
  5 20  3  0
  6 10  3  0
  6 11  3  0
  7  9  3  0
  7 13  4  0
  7 17  4  0
  8 10  4  0
  8 16  4  0
  8 18  4  0
  8 19  2  0
  8 20  3  0
  9 10  2  0
  9 14  3  0
 10 12  4  0
 10 14  2  0
 10 17  1  0
 10 19  2  0
 11 17  3  0
 11 18  2  0
 11 20  4  0
 11 21  1  0
 12 13  3  0
 12 18  2  0
 12 20  2  0
 13 14  2  0
 13 15  4  0
 15 20  2  0
 16 17  1  0
 16 18  3  0
 16 21  2  0
 17 18  3  0
 17 20  4  0
 17 21  3  0
 18 21  4  0
 19 20  2  0
 19 21  1  0
M  END
$$$$

 Created by Python create_sdf_string function

 34 12  0  0  0  0  0  0  0  0999 V2000
   13.0885   -4.1454   22.5009 C   0  0  0  0  0  0  0  0  0  0  0  0
    5.7370   -8.5995   16.0220 C   0  0  0  0  0  0  0  0  0  0  0  0
   10.8893   -5.4041   18.0130 C   0  0  0  0  0  0  0  0  0  0  0  0
    2.6223  -10.1671   17.7757 C   0  0  0  0  0  0  0  0  0  0  0  0
    0.4282  -11.2640   20.4645 C   0  0  0  0  0  0  0  0  0  0  0  0
   12.1581   -4.3724   21.3472 C   0  0  0  0  0  0  0  0  0  0  0  0
   10.4355   -3.8789   17.7451 C   0  0  0  0  0  0  0  0  0  0  0  0
   10.8830   -4.2562   19.1719 C   0  0  0  0  0  0  0  0  0  0  0  0
    2.4364  -11.7756   19.6883 C   0  0  0  0  0  0  0  0  0  0  0  0
   12.2842   -4.2294   21.7457 C   0  0  0  0  0  0  0  0  0  0  0  0
    0.6705  -11.1552   19.7738 C   0  0  0  0  0  0  0  0  0  0  0  0
    9.1780   -6.3652   17.3128 C   0  0  0  0  0  0  0  0  0  0  0  0
    7.8073   -6.7041   16.8926 C   0  0  0  0  0  0  0  0  0  0  0  0
    6.5721   -8.7318   15.7231 C   0  0  0  0  0  0  0  0  0  0  0  0
    4.1335   -9.1115   17.0037 C   0  0  0  0  0  0  0  0  0  0  0  0
   11.7412   -3.7081   23.6154 O   0  0  0  0  0  0  0  0  0  0  0  0
    8.1470   -6.6267   17.9497 C   0  0  0  0  0  0  0  0  0  0  0  0
   10.4925   -4.0069   20.5202 C   0  0  0  0  0  0  0  0  0  0  0  0
   12.1890   -4.9125   20.3459 C   0  0  0  0  0  0  0  0  0  0  0  0
    4.6452   -9.5515   18.0432 C   0  0  0  0  0  0  0  0  0  0  0  0
    7.8870   -8.1101   15.5581 C   0  0  0  0  0  0  0  0  0  0  0  0
    0.0789  -11.9713   22.3800 Cl  0  0  0  0  0  0  0  0  0  0  0  0
    8.1092   -6.9673   15.7089 C   0  0  0  0  0  0  0  0  0  0  0  0
    9.4201   -4.7514   16.4478 C   0  0  0  0  0  0  0  0  0  0  0  0
    9.9115   -6.0621   18.5710 C   0  0  0  0  0  0  0  0  0  0  0  0
   12.8761   -4.4742   23.3154 O   0  0  0  0  0  0  0  0  0  0  0  0
    1.3785  -12.0490   21.0718 C   0  0  0  0  0  0  0  0  0  0  0  0
    3.4422   -9.8449   17.5099 C   0  0  0  0  0  0  0  0  0  0  0  0
    1.8705   -9.6271   16.8620 C   0  0  0  0  0  0  0  0  0  0  0  0
    1.2792  -10.9730   18.7526 C   0  0  0  0  0  0  0  0  0  0  0  0
    6.2313   -8.2699   16.5510 C   0  0  0  0  0  0  0  0  0  0  0  0
   10.5701   -4.7025   19.2768 C   0  0  0  0  0  0  0  0  0  0  0  0
    1.9621  -12.1773   20.7243 C   0  0  0  0  0  0  0  0  0  0  0  0
    3.4122   -9.2109   16.0061 N   0  0  0  0  0  0  0  0  0  0  0  0
  4 28  4  0
  5 11  4  0
  6 10  4  0
  6 19  4  0
  8 32  4  0
  9 27  4  0
  9 33  4  0
 11 30  4  0
 14 21  4  0
 21 23  4  0
 22 27  1  0
 27 33  4  0
M  END
$$$$

 Created by Python create_sdf_string function

 34 39  0  0  0  0  0  0  0  0999 V2000
   13.0779   -3.9715   22.5174 O   0  0  0  0  0  0  0  0  0  0  0  0
    7.0723   -7.8391   15.6338 C   0  0  0  0  0  0  0  0  0  0  0  0
   12.0187   -3.7004   21.6433 C   0  0  0  0  0  0  0  0  0  0  0  0
    3.4618  -12.2678   18.9075 P   0  0  0  0  0  0  0  0  0  0  0  0
    8.8767   -5.8591   18.1646 Cl  0  0  0  0  0  0  0  0  0  0  0  0
    8.2621   -8.6689   17.8713 F   0  0  0  0  0  0  0  0  0  0  0  0
    6.3054   -6.3494   18.2836 O   0  0  0  0  0  0  0  0  0  0  0  0
    0.4978  -12.2597   22.7771 Cl  0  0  0  0  0  0  0  0  0  0  0  0
    6.1488   -5.8847   16.8147 C   0  0  0  0  0  0  0  0  0  0  0  0
    1.0216  -11.6831   20.7838 C   0  0  0  0  0  0  0  0  0  0  0  0
    3.3352   -9.8894   17.1100 C   0  0  0  0  0  0  0  0  0  0  0  0
    2.2100  -10.2599   17.5271 O   0  0  0  0  0  0  0  0  0  0  0  0
    1.1668  -10.6392   18.4084 C   0  0  0  0  0  0  0  0  0  0  0  0
   10.8752   -4.5059   19.4483 C   0  0  0  0  0  0  0  0  0  0  0  0
    1.4910  -12.0055   20.7896 B   0  0  0  0  0  0  0  0  0  0  0  0
    2.5133   -7.7083   16.3064 P   0  0  0  0  0  0  0  0  0  0  0  0
   11.9308   -7.2130   18.1050 He  0  0  0  0  0  0  0  0  0  0  0  0
    2.7898  -10.4895   17.8547 He  0  0  0  0  0  0  0  0  0  0  0  0
    0.3024  -11.2768   20.4027 He  0  0  0  0  0  0  0  0  0  0  0  0
   10.6596   -3.7896   17.4210 He  0  0  0  0  0  0  0  0  0  0  0  0
   11.1315   -5.3069   19.0612 He  0  0  0  0  0  0  0  0  0  0  0  0
   13.2515   -4.5837   20.8337 He  0  0  0  0  0  0  0  0  0  0  0  0
    0.6116  -11.7325   19.7839 He  0  0  0  0  0  0  0  0  0  0  0  0
    8.4176   -8.3634   14.9553 He  0  0  0  0  0  0  0  0  0  0  0  0
    5.5929   -8.9019   16.9618 He  0  0  0  0  0  0  0  0  0  0  0  0
   10.8307   -3.6929   23.0736 He  0  0  0  0  0  0  0  0  0  0  0  0
   10.1436   -3.8580   20.2491 He  0  0  0  0  0  0  0  0  0  0  0  0
   12.1523   -5.0268   20.0949 He  0  0  0  0  0  0  0  0  0  0  0  0
    3.7801   -8.7996   17.7283 He  0  0  0  0  0  0  0  0  0  0  0  0
    7.2897  -10.0012   14.9967 He  0  0  0  0  0  0  0  0  0  0  0  0
    9.3196   -4.6425   16.2948 He  0  0  0  0  0  0  0  0  0  0  0  0
   10.4063   -6.1633   17.6242 He  0  0  0  0  0  0  0  0  0  0  0  0
   13.3424   -4.7021   23.4907 He  0  0  0  0  0  0  0  0  0  0  0  0
    6.1692   -8.9561   16.6721 He  0  0  0  0  0  0  0  0  0  0  0  0
  1  5  2  0
  1 12  4  0
  2  3  3  0
  2  4  1  0
  2  7  4  0
  2  8  3  0
  2 10  3  0
  2 14  3  0
  3  6  3  0
  3 10  3  0
  4  5  1  0
  4 11  1  0
  4 13  3  0
  4 15  4  0
  4 16  4  0
  5 10  1  0
  6  9  2  0
  6 11  3  0
  6 13  2  0
  6 16  3  0
  7  8  4  0
  7  9  2  0
  7 13  3  0
  7 14  4  0
  7 15  1  0
  7 16  2  0
  8  9  4  0
  8 10  2  0
  8 16  1  0
  9 12  3  0
  9 15  2  0
 10 12  3  0
 10 15  4  0
 10 16  3  0
 12 14  1  0
 12 15  1  0
 13 14  2  0
 13 16  1  0
 15 16  3  0
M  END
$$$$

 Created by Python create_sdf_string function

 34 18  0  0  0  0  0  0  0  0999 V2000
   13.3025   -4.2224   22.6863 O   0  0  0  0  0  0  0  0  0  0  0  0
    7.1375   -7.8306   16.2928 C   0  0  0  0  0  0  0  0  0  0  0  0
   10.7402   -6.4634   18.5300 C   0  0  0  0  0  0  0  0  0  0  0  0
    2.9400  -10.0296   17.5334 C   0  0  0  0  0  0  0  0  0  0  0  0
    0.0576  -11.3784   20.3650 C   0  0  0  0  0  0  0  0  0  0  0  0
   11.9889   -4.2021   21.9534 C   0  0  0  0  0  0  0  0  0  0  0  0
   10.4550   -4.0749   17.2986 C   0  0  0  0  0  0  0  0  0  0  0  0
   10.9974   -4.7448   19.3115 C   0  0  0  0  0  0  0  0  0  0  0  0
    2.6826  -11.6778   19.2993 C   0  0  0  0  0  0  0  0  0  0  0  0
   12.6828   -4.8652   21.1616 C   0  0  0  0  0  0  0  0  0  0  0  0
    0.5777  -11.2888   19.4723 C   0  0  0  0  0  0  0  0  0  0  0  0
    9.2400   -6.0727   17.6888 C   0  0  0  0  0  0  0  0  0  0  0  0
    8.4489   -7.8373   17.4379 C   0  0  0  0  0  0  0  0  0  0  0  0
    8.1802   -8.3089   15.2441 C   0  0  0  0  0  0  0  0  0  0  0  0
    5.4121   -8.7025   16.9020 C   0  0  0  0  0  0  0  0  0  0  0  0
   11.3298   -3.7306   22.8415 O   0  0  0  0  0  0  0  0  0  0  0  0
    6.7268   -6.9895   17.7444 C   0  0  0  0  0  0  0  0  0  0  0  0
   10.5975   -4.0884   20.5853 C   0  0  0  0  0  0  0  0  0  0  0  0
   12.1656   -5.1386   20.3238 C   0  0  0  0  0  0  0  0  0  0  0  0
    4.0843   -8.7550   17.0744 C   0  0  0  0  0  0  0  0  0  0  0  0
    7.2333   -9.0243   15.4053 C   0  0  0  0  0  0  0  0  0  0  0  0
    0.3454  -12.1521   22.3996 Cl  0  0  0  0  0  0  0  0  0  0  0  0
    7.2118   -6.9199   16.9046 C   0  0  0  0  0  0  0  0  0  0  0  0
    9.5836   -4.5358   16.5773 C   0  0  0  0  0  0  0  0  0  0  0  0
    9.7047   -6.0994   17.9144 C   0  0  0  0  0  0  0  0  0  0  0  0
   12.9961   -4.3789   23.0095 C   0  0  0  0  0  0  0  0  0  0  0  0
    1.2344  -12.0105   21.2544 C   0  0  0  0  0  0  0  0  0  0  0  0
    3.8642   -9.8847   17.4880 C   0  0  0  0  0  0  0  0  0  0  0  0
    1.8979  -10.2021   17.6480 C   0  0  0  0  0  0  0  0  0  0  0  0
    1.1735  -10.9611   18.5425 C   0  0  0  0  0  0  0  0  0  0  0  0
    5.9636   -8.8739   16.5624 C   0  0  0  0  0  0  0  0  0  0  0  0
   11.0196   -4.6785   19.2924 C   0  0  0  0  0  0  0  0  0  0  0  0
    2.0144  -12.1345   20.5887 C   0  0  0  0  0  0  0  0  0  0  0  0
    3.0337   -8.6560   16.5613 C   0  0  0  0  0  0  0  0  0  0  0  0
  3 25  4  0
  4 28  4  0
  4 29  4  0
  5 11  4  0
  6 26  1  0
  7 24  4  0
  8 32  4  0
  9 33  4  0
 10 19  4  0
 11 30  4  0
 12 25  1  0
 14 21  4  0
 15 31  4  0
 17 23  4  0
 20 34  4  0
 22 27  4  0
 27 33  4  0
 29 30  4  0
M  END
$$$$

 Created by Python create_sdf_string function

 34100  0  0  0  0  0  0  0  0999 V2000
   13.3908   -4.2199   22.8974 P   0  0  0  0  0  0  0  0  0  0  0  0
    7.1220   -7.9157   16.1628 F   0  0  0  0  0  0  0  0  0  0  0  0
    0.4012  -12.0669   20.7563 C   0  0  0  0  0  0  0  0  0  0  0  0
    9.8027   -4.4813   17.0210 S   0  0  0  0  0  0  0  0  0  0  0  0
    1.7353  -11.9297   17.8955 O   0  0  0  0  0  0  0  0  0  0  0  0
   12.5958   -6.0571   21.8291 C   0  0  0  0  0  0  0  0  0  0  0  0
    0.6954  -11.0356   19.0269 C   0  0  0  0  0  0  0  0  0  0  0  0
    8.9531   -5.5742   18.0588 Cl  0  0  0  0  0  0  0  0  0  0  0  0
    9.2962   -7.2126   19.2277 C   0  0  0  0  0  0  0  0  0  0  0  0
   10.0133   -9.9410   14.4411 C   0  0  0  0  0  0  0  0  0  0  0  0
    5.9256   -8.9372   16.5858 F   0  0  0  0  0  0  0  0  0  0  0  0
    7.6113   -5.5025   17.5476 Se  0  0  0  0  0  0  0  0  0  0  0  0
   10.5458   -3.0226   21.2122 N   0  0  0  0  0  0  0  0  0  0  0  0
   13.9111   -4.4523   20.2216 C   0  0  0  0  0  0  0  0  0  0  0  0
    2.8934   -9.2234   15.6895 C   0  0  0  0  0  0  0  0  0  0  0  0
    0.2853  -12.2444   22.7436 F   0  0  0  0  0  0  0  0  0  0  0  0
    5.3654   -6.4678   17.1044 B   0  0  0  0  0  0  0  0  0  0  0  0
    9.7844   -4.4056   16.2693 C   0  0  0  0  0  0  0  0  0  0  0  0
   13.1283   -4.5450   22.9449 C   0  0  0  0  0  0  0  0  0  0  0  0
    4.0234   -9.6507   17.7626 C   0  0  0  0  0  0  0  0  0  0  0  0
    1.7829  -10.5286   18.1793 C   0  0  0  0  0  0  0  0  0  0  0  0
    1.0325  -10.9728   18.4348 C   0  0  0  0  0  0  0  0  0  0  0  0
    7.1495   -6.6650   17.0729 N   0  0  0  0  0  0  0  0  0  0  0  0
   10.6900   -4.1942   19.7894 F   0  0  0  0  0  0  0  0  0  0  0  0
    3.0119   -8.5913   14.8261 F   0  0  0  0  0  0  0  0  0  0  0  0
    9.1739   -6.3680   18.2340 He  0  0  0  0  0  0  0  0  0  0  0  0
    2.9187   -9.8542   17.6179 He  0  0  0  0  0  0  0  0  0  0  0  0
   12.2306   -4.3326   21.5134 He  0  0  0  0  0  0  0  0  0  0  0  0
   11.2442   -4.7688   18.6723 He  0  0  0  0  0  0  0  0  0  0  0  0
   10.6197   -3.7334   22.6632 He  0  0  0  0  0  0  0  0  0  0  0  0
    7.0951   -8.6779   15.1212 He  0  0  0  0  0  0  0  0  0  0  0  0
    9.3622   -7.7907   17.8802 He  0  0  0  0  0  0  0  0  0  0  0  0
    1.3938  -12.0699   20.9832 He  0  0  0  0  0  0  0  0  0  0  0  0
    2.0266  -12.1054   20.4801 He  0  0  0  0  0  0  0  0  0  0  0  0
  1  3  1  0
  1  9  4  0
  1 11  3  0
  1 15  1  0
  1 21  3  0
  1 23  4  0
  2  3  1  0
  2  5  2  0
  2  6  3  0
  2 11  1  0
  2 19  3  0
  3  9  2  0
  3 11  4  0
  3 13  3  0
  3 15  1  0
  3 18  1  0
  3 19  2  0
  3 21  1  0
  4  5  2  0
  4  6  3  0
  4  8  4  0
  4 10  1  0
  4 11  2  0
  4 12  2  0
  4 14  4  0
  4 16  2  0
  4 18  2  0
  4 23  3  0
  4 25  3  0
  5  6  1  0
  5  7  3  0
  5  8  1  0
  5 18  2  0
  5 19  4  0
  5 21  3  0
  6  8  3  0
  6 10  4  0
  6 11  1  0
  6 20  3  0
  6 21  1  0
  6 22  2  0
  6 24  2  0
  7 10  2  0
  7 13  1  0
  7 17  3  0
  7 20  3  0
  7 21  2  0
  7 23  2  0
  7 25  4  0
  8 11  3  0
  8 13  4  0
  8 16  3  0
  8 17  2  0
  8 18  4  0
  8 19  4  0
  8 23  1  0
  8 25  3  0
  9 15  3  0
  9 20  4  0
  9 25  4  0
 10 14  2  0
 10 15  1  0
 10 20  2  0
 10 22  1  0
 10 24  4  0
 11 13  2  0
 11 20  4  0
 11 22  4  0
 11 24  3  0
 11 25  4  0
 12 16  3  0
 12 17  2  0
 12 18  4  0
 12 19  3  0
 12 23  2  0
 12 24  4  0
 12 25  1  0
 13 15  3  0
 13 16  3  0
 13 17  2  0
 13 22  1  0
 13 24  2  0
 14 15  4  0
 14 18  4  0
 14 20  4  0
 14 21  2  0
 14 23  4  0
 14 24  3  0
 14 25  3  0
 15 17  4  0
 15 19  1  0
 15 23  1  0
 17 22  4  0
 18 21  1  0
 18 25  2  0
 19 20  1  0
 19 21  2  0
 19 22  3  0
 19 25  3  0
 20 23  3  0
M  END
$$$$

 Created by Python create_sdf_string function

 34 14  0  0  0  0  0  0  0  0999 V2000
   13.4735   -4.4805   23.1842 O   0  0  0  0  0  0  0  0  0  0  0  0
    7.2244   -8.2496   16.4684 C   0  0  0  0  0  0  0  0  0  0  0  0
    9.5726   -6.3993   18.1259 C   0  0  0  0  0  0  0  0  0  0  0  0
    3.2179   -9.9243   17.5761 C   0  0  0  0  0  0  0  0  0  0  0  0
    0.1707  -11.8112   20.5667 C   0  0  0  0  0  0  0  0  0  0  0  0
   12.3565   -4.5955   21.6154 C   0  0  0  0  0  0  0  0  0  0  0  0
    9.9702   -4.3924   17.0811 C   0  0  0  0  0  0  0  0  0  0  0  0
   11.0850   -4.7159   18.7860 C   0  0  0  0  0  0  0  0  0  0  0  0
    2.0407  -10.9745   18.4399 C   0  0  0  0  0  0  0  0  0  0  0  0
   12.5772   -4.8923   21.9943 C   0  0  0  0  0  0  0  0  0  0  0  0
    0.4993  -11.3061   19.1394 C   0  0  0  0  0  0  0  0  0  0  0  0
    9.6158   -5.4242   17.7738 C   0  0  0  0  0  0  0  0  0  0  0  0
    9.7227   -7.0124   18.4816 C   0  0  0  0  0  0  0  0  0  0  0  0
    8.2648   -8.4023   15.3734 C   0  0  0  0  0  0  0  0  0  0  0  0
    5.2320   -8.6763   16.6933 C   0  0  0  0  0  0  0  0  0  0  0  0
   11.1942   -3.7482   22.5844 C   0  0  0  0  0  0  0  0  0  0  0  0
    8.1927   -6.0166   16.9573 C   0  0  0  0  0  0  0  0  0  0  0  0
   10.7682   -3.7887   21.2475 C   0  0  0  0  0  0  0  0  0  0  0  0
   12.5907   -4.9222   20.5650 C   0  0  0  0  0  0  0  0  0  0  0  0
    2.9824   -9.0225   16.2417 C   0  0  0  0  0  0  0  0  0  0  0  0
    6.9538   -8.5703   15.7190 C   0  0  0  0  0  0  0  0  0  0  0  0
    0.1550  -12.3184   22.1260 F   0  0  0  0  0  0  0  0  0  0  0  0
    5.2722   -7.7340   16.7868 C   0  0  0  0  0  0  0  0  0  0  0  0
    9.7262   -4.4746   16.7411 C   0  0  0  0  0  0  0  0  0  0  0  0
    8.9759   -7.7107   17.4759 C   0  0  0  0  0  0  0  0  0  0  0  0
   13.0479   -4.5853   22.8363 C   0  0  0  0  0  0  0  0  0  0  0  0
    1.6036  -12.0726   21.0200 C   0  0  0  0  0  0  0  0  0  0  0  0
    4.3397   -9.6678   17.6165 C   0  0  0  0  0  0  0  0  0  0  0  0
    2.1381  -10.4661   17.9532 C   0  0  0  0  0  0  0  0  0  0  0  0
    0.8349  -11.0958   18.6789 C   0  0  0  0  0  0  0  0  0  0  0  0
    7.3306   -6.8884   16.9460 C   0  0  0  0  0  0  0  0  0  0  0  0
   10.8716   -4.3806   19.9745 C   0  0  0  0  0  0  0  0  0  0  0  0
    1.9971  -11.8974   20.1586 C   0  0  0  0  0  0  0  0  0  0  0  0
    3.5406   -8.7725   15.7982 C   0  0  0  0  0  0  0  0  0  0  0  0
  3 13  4  0
  4 28  4  0
  4 29  1  0
  5 11  4  0
  6 19  4  0
  7 24  4  0
  9 29  1  0
 11 30  4  0
 14 21  1  0
 15 28  4  0
 16 18  4  0
 18 32  4  0
 20 34  4  0
 27 33  4  0
M  END
$$$$

 Created by Python create_sdf_string function

 34 76  0  0  0  0  0  0  0  0999 V2000
   13.5969   -4.5764   22.7044 O   0  0  0  0  0  0  0  0  0  0  0  0
    6.9785   -7.9839   16.5111 C   0  0  0  0  0  0  0  0  0  0  0  0
    9.8603   -6.0085   18.6972 C   0  0  0  0  0  0  0  0  0  0  0  0
    3.1178  -10.0234   17.6208 C   0  0  0  0  0  0  0  0  0  0  0  0
    0.1203  -11.8741   20.3275 C   0  0  0  0  0  0  0  0  0  0  0  0
   12.2389   -5.2296   21.7228 C   0  0  0  0  0  0  0  0  0  0  0  0
    0.3507  -11.1009   17.9797 C   0  0  0  0  0  0  0  0  0  0  0  0
   11.3255   -4.5311   21.4980 C   0  0  0  0  0  0  0  0  0  0  0  0
    1.0994  -11.2362   19.0113 C   0  0  0  0  0  0  0  0  0  0  0  0
   12.6140   -3.8573   22.9978 C   0  0  0  0  0  0  0  0  0  0  0  0
    8.8715   -5.5390   16.9882 N   0  0  0  0  0  0  0  0  0  0  0  0
   12.0870   -5.1513   19.3573 C   0  0  0  0  0  0  0  0  0  0  0  0
    2.0639   -9.6422   16.2921 O   0  0  0  0  0  0  0  0  0  0  0  0
    5.2634   -7.9271   16.7924 O   0  0  0  0  0  0  0  0  0  0  0  0
    0.2934  -12.2463   22.2080 F   0  0  0  0  0  0  0  0  0  0  0  0
    9.6881   -3.8700   16.4697 C   0  0  0  0  0  0  0  0  0  0  0  0
   12.4188   -4.4460   22.7736 C   0  0  0  0  0  0  0  0  0  0  0  0
    1.6398  -11.7550   21.1992 C   0  0  0  0  0  0  0  0  0  0  0  0
    3.9147   -9.3691   17.9795 C   0  0  0  0  0  0  0  0  0  0  0  0
    1.1972  -10.6884   18.6485 C   0  0  0  0  0  0  0  0  0  0  0  0
   11.3597   -4.1187   19.4727 C   0  0  0  0  0  0  0  0  0  0  0  0
    2.1700  -12.0377   20.2589 C   0  0  0  0  0  0  0  0  0  0  0  0
    4.7814   -8.8665   15.6762 N   0  0  0  0  0  0  0  0  0  0  0  0
    9.2110   -4.1210   15.5029 He  0  0  0  0  0  0  0  0  0  0  0  0
    9.4814   -4.2836   17.0914 He  0  0  0  0  0  0  0  0  0  0  0  0
    9.1709   -3.6419   17.8121 He  0  0  0  0  0  0  0  0  0  0  0  0
   10.8377   -6.7288   19.0313 He  0  0  0  0  0  0  0  0  0  0  0  0
    7.1295   -9.8055   17.1091 He  0  0  0  0  0  0  0  0  0  0  0  0
    5.1896   -9.4112   15.7090 He  0  0  0  0  0  0  0  0  0  0  0  0
   13.4288   -5.2218   20.1862 He  0  0  0  0  0  0  0  0  0  0  0  0
    4.0365   -9.3877   16.8635 He  0  0  0  0  0  0  0  0  0  0  0  0
    7.8159   -9.4234   17.9760 He  0  0  0  0  0  0  0  0  0  0  0  0
    2.0696  -11.6904   18.4248 He  0  0  0  0  0  0  0  0  0  0  0  0
    6.4189   -6.4158   16.8729 He  0  0  0  0  0  0  0  0  0  0  0  0
  1  5  2  0
  1  9  4  0
  1 10  4  0
  1 13  2  0
  1 17  3  0
  1 20  1  0
  1 23  1  0
  2  3  2  0
  2  5  2  0
  2  7  4  0
  2  9  3  0
  2 14  2  0
  2 15  4  0
  2 17  1  0
  2 18  4  0
  2 21  4  0
  2 22  2  0
  3  8  3  0
  3 13  3  0
  3 15  1  0
  3 16  3  0
  3 18  1  0
  3 22  4  0
  4 11  4  0
  4 19  4  0
  5 10  2  0
  5 11  4  0
  5 12  1  0
  5 18  4  0
  5 19  4  0
  5 21  2  0
  6 10  2  0
  6 12  3  0
  6 13  1  0
  7 14  4  0
  7 18  2  0
  7 19  4  0
  7 22  2  0
  8 16  1  0
  8 18  3  0
  9 11  4  0
  9 13  4  0
  9 14  4  0
  9 20  4  0
 10 14  4  0
 10 19  1  0
 10 22  1  0
 11 12  1  0
 11 14  2  0
 11 21  4  0
 12 14  2  0
 12 16  3  0
 12 17  1  0
 12 18  3  0
 12 19  1  0
 12 20  3  0
 12 22  1  0
 13 15  2  0
 13 17  4  0
 13 18  2  0
 13 20  4  0
 13 22  4  0
 13 23  1  0
 14 16  2  0
 14 17  2  0
 14 18  3  0
 14 19  1  0
 15 16  1  0
 15 17  2  0
 15 21  3  0
 17 21  2  0
 18 20  3  0
 18 22  4  0
 18 23  4  0
 19 21  2  0
 20 22  1  0
M  END
$$$$

 Created by Python create_sdf_string function

 34 20  0  0  0  0  0  0  0  0999 V2000
   13.5108   -4.6475   22.6425 O   0  0  0  0  0  0  0  0  0  0  0  0
    7.3773   -7.6411   16.5359 C   0  0  0  0  0  0  0  0  0  0  0  0
    9.6697   -6.1608   18.1110 C   0  0  0  0  0  0  0  0  0  0  0  0
    3.4477  -10.2579   17.9768 C   0  0  0  0  0  0  0  0  0  0  0  0
    0.1908  -11.8304   20.4668 C   0  0  0  0  0  0  0  0  0  0  0  0
   12.0931   -4.7772   21.4802 C   0  0  0  0  0  0  0  0  0  0  0  0
    9.1415   -4.0965   15.9651 O   0  0  0  0  0  0  0  0  0  0  0  0
    9.8680   -4.3861   17.1966 C   0  0  0  0  0  0  0  0  0  0  0  0
    0.6604  -10.5950   17.5881 C   0  0  0  0  0  0  0  0  0  0  0  0
   11.5489   -4.3321   21.1409 C   0  0  0  0  0  0  0  0  0  0  0  0
    0.4132  -11.3003   19.0163 C   0  0  0  0  0  0  0  0  0  0  0  0
   10.2982   -4.2151   17.8805 C   0  0  0  0  0  0  0  0  0  0  0  0
   10.4789   -6.2316   18.9169 C   0  0  0  0  0  0  0  0  0  0  0  0
    7.0271   -8.6955   16.9887 C   0  0  0  0  0  0  0  0  0  0  0  0
    5.1478   -8.9581   16.0210 C   0  0  0  0  0  0  0  0  0  0  0  0
   12.6097   -4.2340   22.8288 C   0  0  0  0  0  0  0  0  0  0  0  0
    8.6812   -5.9708   16.9872 N   0  0  0  0  0  0  0  0  0  0  0  0
   11.5037   -5.2608   19.7105 C   0  0  0  0  0  0  0  0  0  0  0  0
   12.7352   -5.1262   21.0200 C   0  0  0  0  0  0  0  0  0  0  0  0
    1.8814   -9.6805   16.6998 N   0  0  0  0  0  0  0  0  0  0  0  0
    5.8616   -7.8739   16.9846 C   0  0  0  0  0  0  0  0  0  0  0  0
    0.1456  -12.4106   22.0673 F   0  0  0  0  0  0  0  0  0  0  0  0
    4.1279   -9.2437   17.0485 C   0  0  0  0  0  0  0  0  0  0  0  0
    9.7095   -4.1171   16.5295 C   0  0  0  0  0  0  0  0  0  0  0  0
    7.8808   -8.2788   17.4280 C   0  0  0  0  0  0  0  0  0  0  0  0
   12.5440   -4.1490   22.9714 C   0  0  0  0  0  0  0  0  0  0  0  0
    1.6403  -12.0178   20.9683 C   0  0  0  0  0  0  0  0  0  0  0  0
    3.9312   -9.6344   17.4671 C   0  0  0  0  0  0  0  0  0  0  0  0
    2.4602  -11.0357   18.8372 C   0  0  0  0  0  0  0  0  0  0  0  0
    1.2429  -10.8868   18.3893 C   0  0  0  0  0  0  0  0  0  0  0  0
    7.1822   -6.7373   16.6375 C   0  0  0  0  0  0  0  0  0  0  0  0
   10.9774   -4.1907   19.4319 C   0  0  0  0  0  0  0  0  0  0  0  0
    2.3202  -11.7103   20.0896 C   0  0  0  0  0  0  0  0  0  0  0  0
    4.8899   -8.9380   16.0018 N   0  0  0  0  0  0  0  0  0  0  0  0
  1 16  4  0
  3 13  4  0
  3 17  1  0
  4 28  4  0
  4 29  4  0
  5 11  4  0
  5 27  4  0
  6 10  4  0
  6 19  4  0
  7 24  1  0
 11 30  4  0
 12 24  4  0
 13 18  4  0
 14 25  1  0
 15 34  1  0
 16 26  4  0
 23 28  4  0
 27 33  4  0
 29 30  4  0
 29 33  4  0
M  END
$$$$

 Created by Python create_sdf_string function

 34100  0  0  0  0  0  0  0  0999 V2000
   13.7431   -4.4561   22.2432 O   0  0  0  0  0  0  0  0  0  0  0  0
    2.8339   -9.9350   18.0507 O   0  0  0  0  0  0  0  0  0  0  0  0
   -0.5998  -14.1123   19.7825 O   0  0  0  0  0  0  0  0  0  0  0  0
   12.1562   -4.7041   21.4550 C   0  0  0  0  0  0  0  0  0  0  0  0
    9.9517   -4.2148   14.6850 F   0  0  0  0  0  0  0  0  0  0  0  0
   11.0805   -3.3405   17.4491 C   0  0  0  0  0  0  0  0  0  0  0  0
    0.1657  -11.0235   19.0681 O   0  0  0  0  0  0  0  0  0  0  0  0
    9.7531   -5.0967   18.1261 C   0  0  0  0  0  0  0  0  0  0  0  0
   11.6544   -6.5108   19.3084 O   0  0  0  0  0  0  0  0  0  0  0  0
    6.9155   -9.4543   15.8977 C   0  0  0  0  0  0  0  0  0  0  0  0
    6.7971   -5.2971   15.7736 O   0  0  0  0  0  0  0  0  0  0  0  0
   11.0768   -6.3560   21.5246 C   0  0  0  0  0  0  0  0  0  0  0  0
    0.9427   -8.7558   16.8524 C   0  0  0  0  0  0  0  0  0  0  0  0
    5.5158   -8.9917   15.2323 C   0  0  0  0  0  0  0  0  0  0  0  0
    0.3197  -12.9701   21.4201 F   0  0  0  0  0  0  0  0  0  0  0  0
    4.4107   -8.2457   17.2561 C   0  0  0  0  0  0  0  0  0  0  0  0
   10.1530   -4.4067   16.5784 C   0  0  0  0  0  0  0  0  0  0  0  0
   12.6531   -4.0991   22.7580 C   0  0  0  0  0  0  0  0  0  0  0  0
    1.4809  -12.2934   20.9358 C   0  0  0  0  0  0  0  0  0  0  0  0
    3.4341  -10.2790   17.5868 C   0  0  0  0  0  0  0  0  0  0  0  0
    1.0724   -9.6467   18.0471 Cl  0  0  0  0  0  0  0  0  0  0  0  0
    6.8361   -6.6866   17.5114 Se  0  0  0  0  0  0  0  0  0  0  0  0
   11.0175   -3.7645   19.1166 C   0  0  0  0  0  0  0  0  0  0  0  0
    2.0675  -11.6427   19.8177 C   0  0  0  0  0  0  0  0  0  0  0  0
    8.2724   -7.4383   15.3843 He  0  0  0  0  0  0  0  0  0  0  0  0
    9.5333   -5.5417   18.7221 He  0  0  0  0  0  0  0  0  0  0  0  0
   -0.3008   -9.0648   16.9916 He  0  0  0  0  0  0  0  0  0  0  0  0
   10.3011   -3.6668   20.6613 He  0  0  0  0  0  0  0  0  0  0  0  0
    5.5450  -10.3922   14.5515 He  0  0  0  0  0  0  0  0  0  0  0  0
   13.0796   -4.1410   23.4660 He  0  0  0  0  0  0  0  0  0  0  0  0
   10.9991   -4.0561   19.4340 He  0  0  0  0  0  0  0  0  0  0  0  0
    7.6003   -7.2717   18.8294 He  0  0  0  0  0  0  0  0  0  0  0  0
    0.8187  -10.5145   18.1449 He  0  0  0  0  0  0  0  0  0  0  0  0
    5.1215   -8.4962   14.8244 He  0  0  0  0  0  0  0  0  0  0  0  0
  1  5  4  0
  1 10  1  0
  1 11  2  0
  1 12  3  0
  1 22  3  0
  2  3  4  0
  2  5  1  0
  2  9  1  0
  2 10  4  0
  2 11  3  0
  2 12  1  0
  2 14  3  0
  2 16  1  0
  2 20  4  0
  2 21  4  0
  2 22  4  0
  3  6  4  0
  3  8  3  0
  3  9  2  0
  3 13  2  0
  3 16  3  0
  3 17  4  0
  3 18  2  0
  3 19  4  0
  3 22  2  0
  4  5  3  0
  4 10  2  0
  4 11  3  0
  4 19  1  0
  4 22  2  0
  5  6  4  0
  5  9  2  0
  5 11  2  0
  5 12  2  0
  5 14  1  0
  5 15  3  0
  5 16  2  0
  5 18  4  0
  5 19  1  0
  6  7  2  0
  6  9  1  0
  6 11  3  0
  6 15  4  0
  6 17  3  0
  6 19  2  0
  6 23  1  0
  7 14  4  0
  7 16  3  0
  7 20  4  0
  7 22  1  0
  8 11  4  0
  8 13  1  0
  8 14  3  0
  8 15  3  0
  8 16  1  0
  8 17  4  0
  8 18  1  0
  8 20  3  0
  8 21  2  0
  8 23  3  0
  9 11  4  0
  9 15  1  0
  9 17  1  0
  9 19  3  0
  9 20  4  0
 10 17  1  0
 10 21  2  0
 10 22  2  0
 10 23  1  0
 11 12  2  0
 11 17  4  0
 11 18  3  0
 11 21  1  0
 11 23  4  0
 11 24  2  0
 12 13  1  0
 12 18  3  0
 12 21  4  0
 12 22  4  0
 12 24  4  0
 13 16  1  0
 13 18  3  0
 13 22  2  0
 14 18  2  0
 14 20  1  0
 14 22  1  0
 15 21  1  0
 16 17  2  0
 16 19  4  0
 16 24  3  0
 17 20  1  0
 17 23  2  0
 18 21  1  0
 19 22  1  0
 19 24  4  0
 20 21  2  0
 21 23  3  0
 21 24  4  0
 22 23  2  0
 22 24  2  0
M  END
$$$$

 Created by Python create_sdf_string function

 34 24  0  0  0  0  0  0  0  0999 V2000
   13.5160   -4.4625   22.6100 O   0  0  0  0  0  0  0  0  0  0  0  0
    7.7310   -7.6752   15.9638 C   0  0  0  0  0  0  0  0  0  0  0  0
    9.4345   -6.0093   18.2220 C   0  0  0  0  0  0  0  0  0  0  0  0
    2.9355   -9.8441   17.5641 C   0  0  0  0  0  0  0  0  0  0  0  0
   -0.0318  -12.4404   19.7295 C   0  0  0  0  0  0  0  0  0  0  0  0
   12.0643   -4.4612   21.3511 C   0  0  0  0  0  0  0  0  0  0  0  0
   10.0436   -3.9042   16.1693 C   0  0  0  0  0  0  0  0  0  0  0  0
   10.8411   -3.5783   17.3601 C   0  0  0  0  0  0  0  0  0  0  0  0
    0.6002   -9.5931   16.9468 N   0  0  0  0  0  0  0  0  0  0  0  0
   10.9303   -3.9697   20.7734 C   0  0  0  0  0  0  0  0  0  0  0  0
    0.0219  -11.4076   18.6235 C   0  0  0  0  0  0  0  0  0  0  0  0
    9.3477   -5.6175   17.4998 C   0  0  0  0  0  0  0  0  0  0  0  0
   10.6293   -5.8172   19.5862 O   0  0  0  0  0  0  0  0  0  0  0  0
    6.6791   -8.8248   15.8633 C   0  0  0  0  0  0  0  0  0  0  0  0
    5.6970   -9.5096   15.4217 C   0  0  0  0  0  0  0  0  0  0  0  0
   12.6269   -4.3788   23.0848 C   0  0  0  0  0  0  0  0  0  0  0  0
    7.4340   -5.5415   15.7129 O   0  0  0  0  0  0  0  0  0  0  0  0
   11.1251   -4.3957   19.7587 C   0  0  0  0  0  0  0  0  0  0  0  0
   11.3448   -4.9493   21.6607 C   0  0  0  0  0  0  0  0  0  0  0  0
    1.3328   -9.1706   16.6390 C   0  0  0  0  0  0  0  0  0  0  0  0
    5.8569   -8.5162   16.2840 C   0  0  0  0  0  0  0  0  0  0  0  0
    0.6027  -12.8202   21.3615 F   0  0  0  0  0  0  0  0  0  0  0  0
    4.6006   -8.7476   16.9742 C   0  0  0  0  0  0  0  0  0  0  0  0
    9.5628   -4.6854   16.6471 C   0  0  0  0  0  0  0  0  0  0  0  0
    8.0949   -7.0318   17.8489 C   0  0  0  0  0  0  0  0  0  0  0  0
   12.4077   -4.1923   22.7533 C   0  0  0  0  0  0  0  0  0  0  0  0
    1.3873  -12.1722   20.4200 C   0  0  0  0  0  0  0  0  0  0  0  0
    3.4305   -9.5424   17.2247 C   0  0  0  0  0  0  0  0  0  0  0  0
    1.8568  -10.6301   18.4260 C   0  0  0  0  0  0  0  0  0  0  0  0
    0.7482  -10.7096   18.1646 C   0  0  0  0  0  0  0  0  0  0  0  0
    7.4643   -6.9700   16.9479 C   0  0  0  0  0  0  0  0  0  0  0  0
   10.8354   -4.1261   18.6711 C   0  0  0  0  0  0  0  0  0  0  0  0
    2.1323  -11.4845   19.6544 C   0  0  0  0  0  0  0  0  0  0  0  0
    5.1990   -8.7081   15.8137 C   0  0  0  0  0  0  0  0  0  0  0  0
  2 31  1  0
  3 12  4  0
  3 13  4  0
  4 28  4  0
  4 29  4  0
  5 11  4  0
  5 27  4  0
  7  8  4  0
  7 24  4  0
  8 32  4  0
  9 20  4  0
  9 30  4  0
 11 30  4  0
 12 24  4  0
 14 15  4  0
 15 34  4  0
 16 26  2  0
 18 32  4  0
 22 27  1  0
 23 28  4  0
 25 31  1  0
 27 33  4  0
 29 30  4  0
 29 33  4  0
M  END
$$$$

 Created by Python create_sdf_string function

 34110  0  0  0  0  0  0  0  0999 V2000
   13.2834   -4.7713   22.2381 F   0  0  0  0  0  0  0  0  0  0  0  0
    8.3339   -4.8277   19.6435 N   0  0  0  0  0  0  0  0  0  0  0  0
    3.0112   -9.6618   17.6248 C   0  0  0  0  0  0  0  0  0  0  0  0
   11.9604   -4.9739   21.4529 C   0  0  0  0  0  0  0  0  0  0  0  0
    8.9058   -4.1541   15.8804 F   0  0  0  0  0  0  0  0  0  0  0  0
    9.7268   -3.9002   18.0025 C   0  0  0  0  0  0  0  0  0  0  0  0
    0.7891   -8.4338   18.8008 F   0  0  0  0  0  0  0  0  0  0  0  0
   -0.2285  -11.0819   18.3575 C   0  0  0  0  0  0  0  0  0  0  0  0
    9.3962   -5.6253   17.9302 C   0  0  0  0  0  0  0  0  0  0  0  0
   10.4450   -7.6842   19.4428 O   0  0  0  0  0  0  0  0  0  0  0  0
    6.5158   -8.2296   17.2002 C   0  0  0  0  0  0  0  0  0  0  0  0
    6.4736   -9.0602   14.0713 C   0  0  0  0  0  0  0  0  0  0  0  0
   10.3139   -5.2160   23.4107 F   0  0  0  0  0  0  0  0  0  0  0  0
    6.7829   -4.7702   14.4927 C   0  0  0  0  0  0  0  0  0  0  0  0
   11.5407   -6.0863   21.3344 O   0  0  0  0  0  0  0  0  0  0  0  0
    6.7028   -8.6022   17.2851 O   0  0  0  0  0  0  0  0  0  0  0  0
    0.5750  -12.6372   21.3037 F   0  0  0  0  0  0  0  0  0  0  0  0
    5.0314   -7.9441   16.4993 C   0  0  0  0  0  0  0  0  0  0  0  0
    9.7016   -4.4740   16.8754 O   0  0  0  0  0  0  0  0  0  0  0  0
    8.6274   -5.9192   18.6688 S   0  0  0  0  0  0  0  0  0  0  0  0
   12.5690   -4.1047   22.5453 C   0  0  0  0  0  0  0  0  0  0  0  0
    1.2415  -11.8353   20.2963 C   0  0  0  0  0  0  0  0  0  0  0  0
    3.1485  -10.0708   17.1074 C   0  0  0  0  0  0  0  0  0  0  0  0
    1.5733  -11.6373   17.8869 N   0  0  0  0  0  0  0  0  0  0  0  0
    0.5294  -10.5362   18.4473 N   0  0  0  0  0  0  0  0  0  0  0  0
    6.9288   -5.1546   15.9421 C   0  0  0  0  0  0  0  0  0  0  0  0
    2.5408  -11.4245   19.7205 C   0  0  0  0  0  0  0  0  0  0  0  0
    8.1220   -8.2214   16.3177 He  0  0  0  0  0  0  0  0  0  0  0  0
    0.5516  -12.4040   19.3522 He  0  0  0  0  0  0  0  0  0  0  0  0
   11.2215   -3.0099   20.8289 He  0  0  0  0  0  0  0  0  0  0  0  0
   10.6693   -3.6502   18.9842 He  0  0  0  0  0  0  0  0  0  0  0  0
    2.0587   -8.2959   16.7285 He  0  0  0  0  0  0  0  0  0  0  0  0
   11.0638   -4.0093   18.2507 He  0  0  0  0  0  0  0  0  0  0  0  0
    5.4721   -9.6166   16.4325 He  0  0  0  0  0  0  0  0  0  0  0  0
  1  5  3  0
  1  9  4  0
  1 17  3  0
  1 20  4  0
  1 22  3  0
  2  4  3  0
  2  5  4  0
  2  9  3  0
  2 10  4  0
  2 15  3  0
  2 18  3  0
  2 20  4  0
  2 21  4  0
  2 26  3  0
  3  5  4  0
  3  6  2  0
  3  7  2  0
  3 12  3  0
  3 14  4  0
  3 15  2  0
  3 16  2  0
  3 20  3  0
  3 23  4  0
  4  7  4  0
  4  8  4  0
  4  9  2  0
  4 11  3  0
  4 16  3  0
  4 17  3  0
  4 18  3  0
  4 20  1  0
  5  6  4  0
  5  8  4  0
  5 12  2  0
  5 13  2  0
  5 16  4  0
  5 19  3  0
  5 21  4  0
  5 22  3  0
  5 26  3  0
  6 11  4  0
  6 17  1  0
  6 19  4  0
  6 21  1  0
  6 23  4  0
  7 10  1  0
  7 12  3  0
  7 14  4  0
  7 16  1  0
  7 17  4  0
  7 19  4  0
  7 24  3  0
  7 25  4  0
  8 11  1  0
  8 15  4  0
  8 20  1  0
  8 24  3  0
  9 10  1  0
  9 12  2  0
  9 14  2  0
  9 16  2  0
  9 20  1  0
  9 22  3  0
  9 23  1  0
 10 12  1  0
 10 13  2  0
 10 16  1  0
 10 23  4  0
 10 26  1  0
 10 27  3  0
 11 13  4  0
 11 14  3  0
 11 15  4  0
 11 16  2  0
 11 20  2  0
 11 21  2  0
 11 26  2  0
 12 19  2  0
 12 24  2  0
 13 16  3  0
 13 19  1  0
 13 23  2  0
 13 25  4  0
 13 27  2  0
 14 16  1  0
 14 20  2  0
 14 25  3  0
 15 16  4  0
 15 19  1  0
 15 23  4  0
 15 24  3  0
 16 18  1  0
 16 19  1  0
 16 21  1  0
 16 22  1  0
 17 22  2  0
 18 19  1  0
 18 23  3  0
 18 24  2  0
 18 27  4  0
 19 20  2  0
 20 22  1  0
 20 25  3  0
 21 24  4  0
 21 27  4  0
 22 26  2  0
 22 27  4  0
 23 24  4  0
 24 26  4  0
 24 27  1  0
M  END
$$$$

 Created by Python create_sdf_string function

 34 20  0  0  0  0  0  0  0  0999 V2000
   13.0650   -4.4592   22.5485 C   0  0  0  0  0  0  0  0  0  0  0  0
    8.0547   -8.0778   16.7000 C   0  0  0  0  0  0  0  0  0  0  0  0
    9.6976   -5.3576   19.1740 N   0  0  0  0  0  0  0  0  0  0  0  0
    3.3595   -9.4301   17.1164 C   0  0  0  0  0  0  0  0  0  0  0  0
    0.1238  -12.0177   19.4303 C   0  0  0  0  0  0  0  0  0  0  0  0
   11.5634   -4.6386   21.4137 C   0  0  0  0  0  0  0  0  0  0  0  0
    9.1144   -4.4934   16.1016 C   0  0  0  0  0  0  0  0  0  0  0  0
   10.2258   -4.2708   17.7068 C   0  0  0  0  0  0  0  0  0  0  0  0
    1.1552   -9.2817   16.9933 C   0  0  0  0  0  0  0  0  0  0  0  0
   11.4825   -3.3949   21.0179 C   0  0  0  0  0  0  0  0  0  0  0  0
    0.1422  -11.2127   18.5366 C   0  0  0  0  0  0  0  0  0  0  0  0
    9.0056   -6.2110   17.6633 C   0  0  0  0  0  0  0  0  0  0  0  0
    9.8047   -7.3818   18.8213 O   0  0  0  0  0  0  0  0  0  0  0  0
    6.3145   -8.0894   17.1332 C   0  0  0  0  0  0  0  0  0  0  0  0
    6.3935   -8.9854   15.6541 C   0  0  0  0  0  0  0  0  0  0  0  0
   11.3693   -4.6303   23.1799 O   0  0  0  0  0  0  0  0  0  0  0  0
    7.5263   -5.5822   15.3725 O   0  0  0  0  0  0  0  0  0  0  0  0
   10.8615   -4.0863   19.3553 C   0  0  0  0  0  0  0  0  0  0  0  0
   11.2234   -5.2702   21.2158 C   0  0  0  0  0  0  0  0  0  0  0  0
    2.3737   -8.7428   16.6817 C   0  0  0  0  0  0  0  0  0  0  0  0
    6.7455   -8.1307   17.1374 C   0  0  0  0  0  0  0  0  0  0  0  0
    0.7519  -12.6674   21.2395 F   0  0  0  0  0  0  0  0  0  0  0  0
    4.8457   -8.4496   16.9183 C   0  0  0  0  0  0  0  0  0  0  0  0
    9.6180   -4.2970   16.5109 N   0  0  0  0  0  0  0  0  0  0  0  0
    9.0886   -6.1699   18.0285 C   0  0  0  0  0  0  0  0  0  0  0  0
   12.3450   -4.0994   22.3757 C   0  0  0  0  0  0  0  0  0  0  0  0
    1.5927  -12.0183   20.4681 C   0  0  0  0  0  0  0  0  0  0  0  0
    3.4384  -10.0972   17.7504 C   0  0  0  0  0  0  0  0  0  0  0  0
    2.2622  -10.7663   18.4730 C   0  0  0  0  0  0  0  0  0  0  0  0
    0.7616  -10.5156   18.0784 N   0  0  0  0  0  0  0  0  0  0  0  0
    7.7945   -6.3647   16.1145 C   0  0  0  0  0  0  0  0  0  0  0  0
   10.8886   -3.9359   18.6439 C   0  0  0  0  0  0  0  0  0  0  0  0
    2.3338  -11.6247   19.6347 C   0  0  0  0  0  0  0  0  0  0  0  0
    5.6780   -9.2054   16.1892 C   0  0  0  0  0  0  0  0  0  0  0  0
  4 20  4  0
  4 28  4  0
  5 11  4  0
  6 19  4  0
  7 24  4  0
  8 24  4  0
  8 32  4  0
  9 20  4  0
  9 30  4  0
 11 30  4  0
 12 25  1  0
 14 21  4  0
 15 34  4  0
 17 31  1  0
 18 32  4  0
 22 27  4  0
 27 33  4  0
 28 29  4  0
 29 30  4  0
 29 33  4  0
M  END
$$$$

 Created by Python create_sdf_string function

 34 64  0  0  0  0  0  0  0  0999 V2000
    8.4239   -8.5869   17.0361 P   0  0  0  0  0  0  0  0  0  0  0  0
    3.6439   -9.6676   16.8837 C   0  0  0  0  0  0  0  0  0  0  0  0
   11.4839   -4.7620   21.2090 C   0  0  0  0  0  0  0  0  0  0  0  0
    9.6173   -3.3325   19.1484 C   0  0  0  0  0  0  0  0  0  0  0  0
   12.4583   -2.7537   20.7509 C   0  0  0  0  0  0  0  0  0  0  0  0
    0.3901  -11.6028   18.6533 N   0  0  0  0  0  0  0  0  0  0  0  0
    8.2145   -5.1744   18.6771 C   0  0  0  0  0  0  0  0  0  0  0  0
    6.7453   -8.1423   16.5481 C   0  0  0  0  0  0  0  0  0  0  0  0
    5.0802  -10.0175   15.6375 C   0  0  0  0  0  0  0  0  0  0  0  0
   11.7333   -3.7672   23.7697 Cl  0  0  0  0  0  0  0  0  0  0  0  0
    9.0854   -7.2322   14.6067 O   0  0  0  0  0  0  0  0  0  0  0  0
   10.9286   -5.0525   20.4909 F   0  0  0  0  0  0  0  0  0  0  0  0
    3.0515   -9.8848   16.9803 N   0  0  0  0  0  0  0  0  0  0  0  0
    0.5691  -13.1345   21.2948 F   0  0  0  0  0  0  0  0  0  0  0  0
    3.3907   -8.2647   16.2006 N   0  0  0  0  0  0  0  0  0  0  0  0
    8.9891   -5.4905   18.2796 O   0  0  0  0  0  0  0  0  0  0  0  0
    1.8524  -12.3838   20.4055 C   0  0  0  0  0  0  0  0  0  0  0  0
    3.6756  -10.2460   18.1387 C   0  0  0  0  0  0  0  0  0  0  0  0
    0.8334  -10.2608   18.0931 N   0  0  0  0  0  0  0  0  0  0  0  0
   10.7996   -4.0641   18.6506 O   0  0  0  0  0  0  0  0  0  0  0  0
    2.6948  -11.7812   19.6105 C   0  0  0  0  0  0  0  0  0  0  0  0
   13.3251   -4.6652   22.7400 He  0  0  0  0  0  0  0  0  0  0  0  0
    9.3103   -6.1763   18.3438 He  0  0  0  0  0  0  0  0  0  0  0  0
    0.5196  -11.8474   18.8518 He  0  0  0  0  0  0  0  0  0  0  0  0
    9.4980   -5.5285   16.0279 He  0  0  0  0  0  0  0  0  0  0  0  0
    1.7102   -9.9656   16.2822 He  0  0  0  0  0  0  0  0  0  0  0  0
   10.2789   -7.0882   18.1759 He  0  0  0  0  0  0  0  0  0  0  0  0
   12.0575   -3.7333   18.4113 He  0  0  0  0  0  0  0  0  0  0  0  0
    6.6512   -7.5179   18.4079 He  0  0  0  0  0  0  0  0  0  0  0  0
    9.1893   -4.7521   16.5793 He  0  0  0  0  0  0  0  0  0  0  0  0
   12.4505   -4.2250   22.8629 He  0  0  0  0  0  0  0  0  0  0  0  0
    2.1441   -9.2940   17.0243 He  0  0  0  0  0  0  0  0  0  0  0  0
    6.9513   -7.1164   14.5692 He  0  0  0  0  0  0  0  0  0  0  0  0
    4.8979   -8.6961   16.1310 He  0  0  0  0  0  0  0  0  0  0  0  0
  1  6  1  0
  1  7  3  0
  1  8  2  0
  1 10  2  0
  1 12  1  0
  1 18  3  0
  1 19  1  0
  1 20  2  0
  2  3  1  0
  2  4  1  0
  2 11  4  0
  2 13  4  0
  2 14  2  0
  2 17  3  0
  3  5  4  0
  3  8  1  0
  3 13  2  0
  3 14  4  0
  3 19  4  0
  4  8  3  0
  4 10  3  0
  4 11  1  0
  4 20  2  0
  5  7  4  0
  5  9  2  0
  5 10  1  0
  5 12  1  0
  5 14  3  0
  5 16  2  0
  5 21  1  0
  6  8  3  0
  6  9  2  0
  6 11  2  0
  6 15  2  0
  6 19  4  0
  7  8  3  0
  7 11  1  0
  7 12  2  0
  7 14  4  0
  7 15  1  0
  7 20  4  0
  8  9  1  0
  8 11  1  0
  8 13  2  0
  8 14  1  0
  8 16  2  0
  8 20  1  0
  9 18  1  0
  9 19  2  0
 10 11  1  0
 10 19  2  0
 11 13  4  0
 11 16  3  0
 11 18  2  0
 12 14  2  0
 12 15  1  0
 12 16  1  0
 12 19  1  0
 13 17  3  0
 14 16  4  0
 14 17  4  0
 15 17  4  0
 16 20  3  0
 17 21  4  0
M  END
$$$$

 Created by Python create_sdf_string function

 34 22  0  0  0  0  0  0  0  0999 V2000
   13.0306   -4.4491   22.7138 C   0  0  0  0  0  0  0  0  0  0  0  0
    8.2052   -8.1714   17.1884 C   0  0  0  0  0  0  0  0  0  0  0  0
    9.1812   -6.2001   17.9395 C   0  0  0  0  0  0  0  0  0  0  0  0
    4.0430   -9.4713   17.2092 C   0  0  0  0  0  0  0  0  0  0  0  0
    0.3891  -11.8508   19.3126 C   0  0  0  0  0  0  0  0  0  0  0  0
   11.4104   -4.5126   21.2596 C   0  0  0  0  0  0  0  0  0  0  0  0
    8.9030   -5.8324   16.2707 C   0  0  0  0  0  0  0  0  0  0  0  0
   10.3491   -4.3661   19.4309 C   0  0  0  0  0  0  0  0  0  0  0  0
    1.6198   -9.3794   16.6589 C   0  0  0  0  0  0  0  0  0  0  0  0
   11.9784   -3.5971   21.4202 C   0  0  0  0  0  0  0  0  0  0  0  0
    0.2335  -11.4339   18.5709 N   0  0  0  0  0  0  0  0  0  0  0  0
    9.3480   -5.4908   18.3477 C   0  0  0  0  0  0  0  0  0  0  0  0
    9.5164   -7.1133   18.0368 C   0  0  0  0  0  0  0  0  0  0  0  0
    6.9885   -8.1851   16.3786 C   0  0  0  0  0  0  0  0  0  0  0  0
    5.1782   -8.9632   16.1156 C   0  0  0  0  0  0  0  0  0  0  0  0
   11.9772   -4.1297   23.1995 C   0  0  0  0  0  0  0  0  0  0  0  0
    8.4220   -7.1412   15.2371 C   0  0  0  0  0  0  0  0  0  0  0  0
   11.1384   -3.6569   19.2158 C   0  0  0  0  0  0  0  0  0  0  0  0
   11.0496   -4.8471   20.8151 C   0  0  0  0  0  0  0  0  0  0  0  0
    2.9514   -9.3488   16.9001 N   0  0  0  0  0  0  0  0  0  0  0  0
    6.6771   -7.7550   17.8431 C   0  0  0  0  0  0  0  0  0  0  0  0
    0.5280  -12.6226   20.4786 C   0  0  0  0  0  0  0  0  0  0  0  0
    3.2153   -8.6159   16.1995 N   0  0  0  0  0  0  0  0  0  0  0  0
    9.2096   -4.8815   16.2612 O   0  0  0  0  0  0  0  0  0  0  0  0
    9.2831   -5.6486   18.1803 C   0  0  0  0  0  0  0  0  0  0  0  0
   12.1761   -4.1671   22.9551 C   0  0  0  0  0  0  0  0  0  0  0  0
    1.8800  -12.2526   20.3775 C   0  0  0  0  0  0  0  0  0  0  0  0
    3.7288  -10.1930   17.9697 C   0  0  0  0  0  0  0  0  0  0  0  0
    2.4402  -10.6754   18.3167 C   0  0  0  0  0  0  0  0  0  0  0  0
    1.1747  -10.6078   17.8965 C   0  0  0  0  0  0  0  0  0  0  0  0
    7.0399   -7.3577   15.3093 C   0  0  0  0  0  0  0  0  0  0  0  0
   10.6962   -3.9024   18.3563 C   0  0  0  0  0  0  0  0  0  0  0  0
    2.5478  -11.6152   19.5017 C   0  0  0  0  0  0  0  0  0  0  0  0
    5.6323   -8.4989   16.3164 C   0  0  0  0  0  0  0  0  0  0  0  0
  4 20  4  0
  4 28  4  0
  5 11  4  0
  5 22  4  0
  6 10  4  0
  6 19  4  0
  7 17  1  0
  7 24  2  0
  9 20  4  0
  9 23  4  0
  9 30  4  0
 11 30  4  0
 15 34  4  0
 16 26  4  0
 17 31  1  0
 18 32  4  0
 20 23  4  0
 22 27  4  0
 27 33  4  0
 28 29  4  0
 29 30  4  0
 29 33  4  0
M  END
$$$$

 Created by Python create_sdf_string function

 34 75  0  0  0  0  0  0  0  0999 V2000
    0.9993  -11.3407   19.6661 O   0  0  0  0  0  0  0  0  0  0  0  0
   10.6558   -4.9530   20.5170 C   0  0  0  0  0  0  0  0  0  0  0  0
    2.5768  -10.6969   17.8814 O   0  0  0  0  0  0  0  0  0  0  0  0
   11.8859   -2.7907   21.7421 C   0  0  0  0  0  0  0  0  0  0  0  0
    0.2403  -11.4533   18.6155 N   0  0  0  0  0  0  0  0  0  0  0  0
    8.9075   -4.0439   18.1589 N   0  0  0  0  0  0  0  0  0  0  0  0
    9.8885   -8.8086   18.4494 N   0  0  0  0  0  0  0  0  0  0  0  0
    7.5828   -7.6697   15.5554 C   0  0  0  0  0  0  0  0  0  0  0  0
    4.9641   -9.1382   16.7835 O   0  0  0  0  0  0  0  0  0  0  0  0
   10.9514   -3.7283   23.4049 S   0  0  0  0  0  0  0  0  0  0  0  0
   11.6657   -4.3214   20.2406 F   0  0  0  0  0  0  0  0  0  0  0  0
    8.7300   -4.9257   20.3871 S   0  0  0  0  0  0  0  0  0  0  0  0
    7.8894   -7.2560   19.1651 C   0  0  0  0  0  0  0  0  0  0  0  0
    0.4218  -12.8673   20.4618 C   0  0  0  0  0  0  0  0  0  0  0  0
    2.5699   -8.4497   15.7565 O   0  0  0  0  0  0  0  0  0  0  0  0
    9.3097   -5.2538   16.5310 O   0  0  0  0  0  0  0  0  0  0  0  0
   11.1271   -5.2281   16.8774 B   0  0  0  0  0  0  0  0  0  0  0  0
    3.9008  -10.4948   17.5780 C   0  0  0  0  0  0  0  0  0  0  0  0
    2.1386  -11.1998   17.6244 C   0  0  0  0  0  0  0  0  0  0  0  0
    1.3298  -10.8353   17.7139 C   0  0  0  0  0  0  0  0  0  0  0  0
    7.0675   -7.7612   14.3094 P   0  0  0  0  0  0  0  0  0  0  0  0
   10.3984   -4.4415   17.7495 C   0  0  0  0  0  0  0  0  0  0  0  0
    2.6431  -11.8832   19.4631 C   0  0  0  0  0  0  0  0  0  0  0  0
   12.9298   -4.7024   22.4508 He  0  0  0  0  0  0  0  0  0  0  0  0
    7.8221   -8.9288   17.0885 He  0  0  0  0  0  0  0  0  0  0  0  0
    9.9207   -6.0429   16.9220 He  0  0  0  0  0  0  0  0  0  0  0  0
    3.7929   -9.5729   16.4174 He  0  0  0  0  0  0  0  0  0  0  0  0
   11.2359   -4.1608   21.0177 He  0  0  0  0  0  0  0  0  0  0  0  0
    8.6573   -5.3591   16.8826 He  0  0  0  0  0  0  0  0  0  0  0  0
    8.8964   -8.2996   15.3238 He  0  0  0  0  0  0  0  0  0  0  0  0
    2.8961   -8.8274   17.3374 He  0  0  0  0  0  0  0  0  0  0  0  0
   12.4015   -4.2940   22.7626 He  0  0  0  0  0  0  0  0  0  0  0  0
    1.7276  -12.5352   20.6185 He  0  0  0  0  0  0  0  0  0  0  0  0
    6.0301   -8.2512   15.8306 He  0  0  0  0  0  0  0  0  0  0  0  0
  1  3  3  0
  1  4  3  0
  1  5  3  0
  1  6  2  0
  1  8  1  0
  1 11  3  0
  1 14  3  0
  1 16  2  0
  1 17  4  0
  1 18  3  0
  1 19  2  0
  1 23  2  0
  2  4  4  0
  2  8  3  0
  2  9  1  0
  2 11  1  0
  2 15  2  0
  2 23  1  0
  3  4  4  0
  3  5  3  0
  3 14  1  0
  3 16  4  0
  3 17  3  0
  3 20  3  0
  3 21  4  0
  3 23  2  0
  4  6  1  0
  4  7  4  0
  4 18  4  0
  4 22  3  0
  5  6  3  0
  5  9  4  0
  5 12  1  0
  5 20  4  0
  5 21  2  0
  6  7  1  0
  6  8  2  0
  6 12  3  0
  6 17  2  0
  6 21  1  0
  7 12  2  0
  7 14  1  0
  7 15  4  0
  8 11  2  0
  8 15  3  0
  8 16  4  0
  9 10  1  0
  9 12  1  0
  9 14  4  0
  9 16  1  0
  9 17  1  0
  9 18  3  0
  9 22  2  0
  9 23  4  0
 10 11  2  0
 10 14  1  0
 10 19  1  0
 10 20  4  0
 10 23  3  0
 11 15  2  0
 11 18  1  0
 11 22  3  0
 11 23  2  0
 13 17  1  0
 13 18  3  0
 13 21  2  0
 15 20  2  0
 15 22  3  0
 15 23  1  0
 16 17  1  0
 17 20  4  0
 17 21  4  0
 19 20  1  0
 19 23  4  0
 21 22  3  0
M  END
$$$$

 Created by Python create_sdf_string function

 34 21  0  0  0  0  0  0  0  0999 V2000
   12.7954   -4.6118   22.3249 C   0  0  0  0  0  0  0  0  0  0  0  0
    7.6398   -8.3915   17.3101 C   0  0  0  0  0  0  0  0  0  0  0  0
    9.6504   -5.8392   17.1230 C   0  0  0  0  0  0  0  0  0  0  0  0
    3.7794   -9.3763   16.9942 C   0  0  0  0  0  0  0  0  0  0  0  0
    0.6684  -12.0225   19.5283 C   0  0  0  0  0  0  0  0  0  0  0  0
   10.9577   -3.9493   21.4573 C   0  0  0  0  0  0  0  0  0  0  0  0
    8.7705   -5.9179   16.6597 C   0  0  0  0  0  0  0  0  0  0  0  0
   11.4056   -4.4987   20.4818 C   0  0  0  0  0  0  0  0  0  0  0  0
    2.9602  -10.4246   17.9488 C   0  0  0  0  0  0  0  0  0  0  0  0
   11.6847   -3.5880   21.8276 C   0  0  0  0  0  0  0  0  0  0  0  0
    0.2369  -11.4622   18.6231 N   0  0  0  0  0  0  0  0  0  0  0  0
    9.6357   -4.5577   18.3747 N   0  0  0  0  0  0  0  0  0  0  0  0
    9.3274   -7.9159   18.0343 C   0  0  0  0  0  0  0  0  0  0  0  0
    7.2247   -7.6055   16.2407 C   0  0  0  0  0  0  0  0  0  0  0  0
    5.2483   -8.8758   16.8229 C   0  0  0  0  0  0  0  0  0  0  0  0
   11.3856   -3.7831   23.4450 O   0  0  0  0  0  0  0  0  0  0  0  0
    8.2916   -7.9673   15.4954 C   0  0  0  0  0  0  0  0  0  0  0  0
   11.7204   -4.7715   20.0109 C   0  0  0  0  0  0  0  0  0  0  0  0
    9.9218   -4.3861   19.8077 C   0  0  0  0  0  0  0  0  0  0  0  0
    2.7217   -9.1301   16.6355 C   0  0  0  0  0  0  0  0  0  0  0  0
    7.9643   -7.4123   17.8360 C   0  0  0  0  0  0  0  0  0  0  0  0
    0.3207  -12.6722   20.6724 C   0  0  0  0  0  0  0  0  0  0  0  0
    3.5406   -8.4814   16.0291 C   0  0  0  0  0  0  0  0  0  0  0  0
    9.1385   -5.2431   16.2722 O   0  0  0  0  0  0  0  0  0  0  0  0
   10.5665   -4.8470   17.0765 C   0  0  0  0  0  0  0  0  0  0  0  0
   12.2566   -4.1918   22.8961 C   0  0  0  0  0  0  0  0  0  0  0  0
    1.9893  -12.2479   20.4544 C   0  0  0  0  0  0  0  0  0  0  0  0
    4.4278  -10.0271   17.7970 C   0  0  0  0  0  0  0  0  0  0  0  0
    2.2665  -10.9754   18.4909 C   0  0  0  0  0  0  0  0  0  0  0  0
    1.1589  -10.6414   17.8802 C   0  0  0  0  0  0  0  0  0  0  0  0
    7.0808   -7.6371   15.5128 C   0  0  0  0  0  0  0  0  0  0  0  0
   10.8595   -4.5491   18.2915 C   0  0  0  0  0  0  0  0  0  0  0  0
    2.6147  -11.7086   19.5583 C   0  0  0  0  0  0  0  0  0  0  0  0
    6.2171   -8.2663   16.2345 C   0  0  0  0  0  0  0  0  0  0  0  0
  2 21  1  0
  4 20  4  0
  4 28  4  0
  5 11  4  0
  5 22  4  0
  5 27  4  0
  6 10  4  0
  8 18  4  0
  9 28  4  0
  9 29  4  0
 11 30  4  0
 13 21  1  0
 14 34  1  0
 15 28  4  0
 15 34  1  0
 16 26  4  0
 17 31  1  0
 20 23  4  0
 27 33  4  0
 29 30  4  0
 29 33  4  0
M  END
$$$$

 Created by Python create_sdf_string function

 34 86  0  0  0  0  0  0  0  0999 V2000
   12.8528   -4.4522   23.2086 C   0  0  0  0  0  0  0  0  0  0  0  0
    3.5687   -8.9979   16.6942 C   0  0  0  0  0  0  0  0  0  0  0  0
   11.1045   -3.8792   21.7414 C   0  0  0  0  0  0  0  0  0  0  0  0
    8.7536   -6.0555   17.1310 C   0  0  0  0  0  0  0  0  0  0  0  0
   10.0552   -5.0322   20.3183 S   0  0  0  0  0  0  0  0  0  0  0  0
    0.2701  -11.4197   18.6353 N   0  0  0  0  0  0  0  0  0  0  0  0
    9.3622   -2.8448   19.3758 F   0  0  0  0  0  0  0  0  0  0  0  0
    9.4414   -7.1103   18.1561 C   0  0  0  0  0  0  0  0  0  0  0  0
    8.0728   -8.2997   14.5944 Cl  0  0  0  0  0  0  0  0  0  0  0  0
   12.9605   -5.3459   21.3737 O   0  0  0  0  0  0  0  0  0  0  0  0
   12.7243   -4.2921   19.1928 C   0  0  0  0  0  0  0  0  0  0  0  0
    9.1734   -4.8233   21.5194 C   0  0  0  0  0  0  0  0  0  0  0  0
    0.3753  -13.1026   20.3585 C   0  0  0  0  0  0  0  0  0  0  0  0
    9.3017   -5.1525   16.5057 O   0  0  0  0  0  0  0  0  0  0  0  0
   10.8434   -4.2783   17.4716 Cl  0  0  0  0  0  0  0  0  0  0  0  0
   12.2210   -3.7998   22.7958 C   0  0  0  0  0  0  0  0  0  0  0  0
    1.8849  -11.7918   20.6370 C   0  0  0  0  0  0  0  0  0  0  0  0
    4.3343  -10.1820   17.7249 C   0  0  0  0  0  0  0  0  0  0  0  0
    2.7605  -11.2442   18.7277 O   0  0  0  0  0  0  0  0  0  0  0  0
    0.9517  -10.7892   18.5769 C   0  0  0  0  0  0  0  0  0  0  0  0
    6.9744   -7.2853   15.1138 C   0  0  0  0  0  0  0  0  0  0  0  0
   10.6121   -4.3524   18.5841 C   0  0  0  0  0  0  0  0  0  0  0  0
    2.4382  -11.5622   19.3381 C   0  0  0  0  0  0  0  0  0  0  0  0
    7.0535   -8.8233   16.6636 P   0  0  0  0  0  0  0  0  0  0  0  0
    7.6499   -7.0480   17.1421 He  0  0  0  0  0  0  0  0  0  0  0  0
   11.0446   -6.3735   16.7621 He  0  0  0  0  0  0  0  0  0  0  0  0
   -0.6426  -12.7771   19.3269 He  0  0  0  0  0  0  0  0  0  0  0  0
   11.4210   -4.9824   20.8715 He  0  0  0  0  0  0  0  0  0  0  0  0
    4.1397  -10.5750   19.3188 He  0  0  0  0  0  0  0  0  0  0  0  0
    3.9193   -8.3160   16.6688 He  0  0  0  0  0  0  0  0  0  0  0  0
    6.6929   -7.8681   15.6566 He  0  0  0  0  0  0  0  0  0  0  0  0
    2.4402   -9.4587   16.2087 He  0  0  0  0  0  0  0  0  0  0  0  0
    7.5577   -7.8861   19.1656 He  0  0  0  0  0  0  0  0  0  0  0  0
    4.0974   -9.2022   16.7436 He  0  0  0  0  0  0  0  0  0  0  0  0
  1  2  4  0
  1  5  4  0
  1  9  4  0
  1 10  2  0
  1 12  1  0
  1 15  4  0
  1 18  2  0
  1 22  3  0
  2  4  4  0
  2  8  1  0
  2  9  3  0
  2 14  4  0
  2 18  4  0
  3  5  4  0
  3  7  3  0
  3  9  3  0
  3 12  3  0
  3 15  2  0
  3 24  3  0
  4  5  3  0
  4  7  2  0
  4  9  3  0
  4 10  3  0
  4 13  3  0
  4 22  2  0
  4 24  2  0
  5 15  4  0
  5 18  2  0
  5 22  2  0
  5 24  4  0
  6 11  1  0
  6 17  3  0
  6 20  1  0
  6 23  1  0
  7  9  2  0
  7 13  3  0
  7 17  2  0
  7 19  4  0
  7 20  1  0
  7 24  4  0
  8 11  2  0
  8 12  3  0
  8 15  3  0
  8 17  2  0
  8 22  1  0
  8 23  3  0
  9 10  1  0
  9 11  4  0
  9 13  4  0
  9 15  2  0
  9 16  1  0
  9 18  1  0
  9 20  1  0
  9 21  3  0
  9 22  1  0
  9 23  4  0
 10 13  4  0
 10 16  1  0
 10 20  3  0
 11 18  3  0
 11 19  3  0
 11 23  3  0
 12 13  3  0
 12 15  3  0
 12 16  1  0
 12 18  3  0
 12 20  4  0
 12 22  1  0
 13 15  3  0
 13 19  4  0
 13 23  1  0
 13 24  4  0
 14 22  2  0
 15 16  4  0
 15 19  3  0
 15 20  3  0
 16 24  4  0
 17 19  1  0
 17 20  2  0
 17 23  4  0
 18 24  2  0
 19 24  1  0
 20 21  2  0
 20 23  2  0
 21 22  2  0
 21 24  2  0
M  END
$$$$

 Created by Python create_sdf_string function

 34 15  0  0  0  0  0  0  0  0999 V2000
   12.7318   -4.6149   23.0449 C   0  0  0  0  0  0  0  0  0  0  0  0
    7.6901   -7.2811   16.9739 C   0  0  0  0  0  0  0  0  0  0  0  0
   10.5478   -5.2113   17.3507 C   0  0  0  0  0  0  0  0  0  0  0  0
    3.3818   -9.1174   16.7486 C   0  0  0  0  0  0  0  0  0  0  0  0
   -0.1068  -12.3876   19.3622 C   0  0  0  0  0  0  0  0  0  0  0  0
   11.1747   -4.1089   21.7489 C   0  0  0  0  0  0  0  0  0  0  0  0
    8.7101   -6.2101   16.8773 C   0  0  0  0  0  0  0  0  0  0  0  0
   11.6931   -4.6840   20.9663 C   0  0  0  0  0  0  0  0  0  0  0  0
    4.1210  -10.5211   18.4730 N   0  0  0  0  0  0  0  0  0  0  0  0
   10.7681   -4.6822   20.1832 C   0  0  0  0  0  0  0  0  0  0  0  0
    0.3670  -11.5439   18.4273 N   0  0  0  0  0  0  0  0  0  0  0  0
    9.9618   -3.9085   19.3713 C   0  0  0  0  0  0  0  0  0  0  0  0
    9.1143   -7.1389   18.1617 C   0  0  0  0  0  0  0  0  0  0  0  0
    7.9884   -7.9510   15.2743 C   0  0  0  0  0  0  0  0  0  0  0  0
    4.5086   -8.4917   16.4900 C   0  0  0  0  0  0  0  0  0  0  0  0
   13.1705   -4.9291   21.8625 C   0  0  0  0  0  0  0  0  0  0  0  0
    6.2731   -7.9796   16.0010 C   0  0  0  0  0  0  0  0  0  0  0  0
   12.1511   -5.0066   19.4989 C   0  0  0  0  0  0  0  0  0  0  0  0
   10.5121   -4.0387   21.4550 C   0  0  0  0  0  0  0  0  0  0  0  0
    2.3445   -9.5273   16.9493 C   0  0  0  0  0  0  0  0  0  0  0  0
    7.9972   -7.7319   18.0041 C   0  0  0  0  0  0  0  0  0  0  0  0
    0.4341  -12.6592   20.2963 C   0  0  0  0  0  0  0  0  0  0  0  0
    4.1653   -8.9508   16.7849 C   0  0  0  0  0  0  0  0  0  0  0  0
    9.1735   -5.2040   16.4328 O   0  0  0  0  0  0  0  0  0  0  0  0
   11.0593   -4.5268   17.4464 C   0  0  0  0  0  0  0  0  0  0  0  0
   12.2081   -4.1930   22.9202 C   0  0  0  0  0  0  0  0  0  0  0  0
    1.9116  -12.0981   20.2293 C   0  0  0  0  0  0  0  0  0  0  0  0
    4.6901   -9.9684   17.8196 C   0  0  0  0  0  0  0  0  0  0  0  0
    2.6436  -10.6933   18.3530 C   0  0  0  0  0  0  0  0  0  0  0  0
    1.0580  -11.1916   18.3356 C   0  0  0  0  0  0  0  0  0  0  0  0
    7.1839   -7.2966   15.6430 C   0  0  0  0  0  0  0  0  0  0  0  0
   10.3812   -4.9650   18.2102 C   0  0  0  0  0  0  0  0  0  0  0  0
    2.1552  -11.7217   19.5295 C   0  0  0  0  0  0  0  0  0  0  0  0
    6.9103   -8.4117   16.9706 C   0  0  0  0  0  0  0  0  0  0  0  0
  3 25  4  0
  3 32  4  0
  4 20  4  0
  4 23  4  0
  5 11  4  0
  5 22  4  0
  7 24  1  0
  9 28  4  0
  9 29  4  0
 11 30  4  0
 13 21  1  0
 14 31  1  0
 15 23  4  0
 22 27  4  0
 27 33  4  0
M  END
$$$$

 Created by Python create_sdf_string function

 34 61  0  0  0  0  0  0  0  0999 V2000
   12.5091   -4.5852   23.2768 C   0  0  0  0  0  0  0  0  0  0  0  0
    7.9528   -6.3100   15.8872 C   0  0  0  0  0  0  0  0  0  0  0  0
   11.1146   -5.2813   17.3968 C   0  0  0  0  0  0  0  0  0  0  0  0
    3.0463   -9.0818   16.5166 O   0  0  0  0  0  0  0  0  0  0  0  0
   10.8375   -4.0101   21.7614 C   0  0  0  0  0  0  0  0  0  0  0  0
    9.6090   -6.8822   16.7586 C   0  0  0  0  0  0  0  0  0  0  0  0
   12.0812   -4.7784   19.6362 C   0  0  0  0  0  0  0  0  0  0  0  0
   -0.0850  -11.1466   18.4807 N   0  0  0  0  0  0  0  0  0  0  0  0
    9.8683   -3.8255   19.4408 O   0  0  0  0  0  0  0  0  0  0  0  0
    7.8808   -6.0629   17.6608 F   0  0  0  0  0  0  0  0  0  0  0  0
    8.3121   -8.4825   15.3777 O   0  0  0  0  0  0  0  0  0  0  0  0
    5.7817   -7.6468   16.6773 F   0  0  0  0  0  0  0  0  0  0  0  0
    2.6599   -9.5352   16.1253 Cl  0  0  0  0  0  0  0  0  0  0  0  0
    0.4439  -12.5408   20.3349 C   0  0  0  0  0  0  0  0  0  0  0  0
    3.1147   -7.7051   16.9511 F   0  0  0  0  0  0  0  0  0  0  0  0
    9.2712   -5.5449   16.8672 O   0  0  0  0  0  0  0  0  0  0  0  0
    1.5678  -11.7030   20.0368 C   0  0  0  0  0  0  0  0  0  0  0  0
    1.0141  -11.2237   18.3947 F   0  0  0  0  0  0  0  0  0  0  0  0
   10.5494   -5.4325   18.2310 C   0  0  0  0  0  0  0  0  0  0  0  0
    1.7939  -12.1869   19.6228 F   0  0  0  0  0  0  0  0  0  0  0  0
    6.3529   -9.1068   17.8056 C   0  0  0  0  0  0  0  0  0  0  0  0
    1.3634  -12.3943   20.6251 He  0  0  0  0  0  0  0  0  0  0  0  0
   10.7254   -4.6508   21.1221 He  0  0  0  0  0  0  0  0  0  0  0  0
    4.6426   -9.9461   18.6974 He  0  0  0  0  0  0  0  0  0  0  0  0
    4.3972   -8.0731   15.5459 He  0  0  0  0  0  0  0  0  0  0  0  0
   13.3599   -3.4689   22.3341 He  0  0  0  0  0  0  0  0  0  0  0  0
   12.7230   -4.9992   18.4726 He  0  0  0  0  0  0  0  0  0  0  0  0
    9.2686   -3.3076   21.0476 He  0  0  0  0  0  0  0  0  0  0  0  0
    8.3311   -8.7839   18.4211 He  0  0  0  0  0  0  0  0  0  0  0  0
   10.2389   -4.3701   18.3606 He  0  0  0  0  0  0  0  0  0  0  0  0
   12.4518   -4.6776   23.0279 He  0  0  0  0  0  0  0  0  0  0  0  0
    4.3850   -9.6117   17.8606 He  0  0  0  0  0  0  0  0  0  0  0  0
    1.9600  -11.4428   17.2574 He  0  0  0  0  0  0  0  0  0  0  0  0
    7.0491   -6.4477   14.3429 He  0  0  0  0  0  0  0  0  0  0  0  0
  1  7  3  0
  1 18  3  0
  2  5  2  0
  2  6  1  0
  2  8  1  0
  2 13  3  0
  2 14  3  0
  2 15  4  0
  2 17  4  0
  2 19  3  0
  2 21  3  0
  3  5  2  0
  3  8  3  0
  3 12  2  0
  3 17  3  0
  3 18  3  0
  3 20  3  0
  4  9  2  0
  4 11  3  0
  4 13  1  0
  4 14  3  0
  4 15  4  0
  4 16  3  0
  4 18  2  0
  4 20  2  0
  5 11  2  0
  5 13  1  0
  6 13  1  0
  6 16  4  0
  7 10  3  0
  7 12  2  0
  7 17  4  0
  7 20  4  0
  8 13  2  0
  8 14  4  0
  8 18  4  0
  8 21  1  0
  9 12  1  0
  9 13  3  0
  9 16  3  0
  9 18  3  0
  9 19  3  0
  9 21  3  0
 10 16  3  0
 10 19  4  0
 10 20  1  0
 11 13  2  0
 11 18  4  0
 11 21  1  0
 12 14  4  0
 12 15  3  0
 12 21  3  0
 13 17  3  0
 13 18  3  0
 14 17  4  0
 15 16  1  0
 15 17  3  0
 17 18  4  0
 17 19  1  0
 17 20  4  0
 20 21  1  0
M  END
$$$$

 Created by Python create_sdf_string function

 34 25  0  0  0  0  0  0  0  0999 V2000
   12.5237   -4.4177   22.8972 C   0  0  0  0  0  0  0  0  0  0  0  0
    8.0788   -6.3917   16.1256 C   0  0  0  0  0  0  0  0  0  0  0  0
   10.9216   -5.0752   17.4638 C   0  0  0  0  0  0  0  0  0  0  0  0
    2.7859   -8.9455   16.5482 C   0  0  0  0  0  0  0  0  0  0  0  0
    1.5278  -12.4067   20.9668 C   0  0  0  0  0  0  0  0  0  0  0  0
   10.9976   -3.8377   21.8263 C   0  0  0  0  0  0  0  0  0  0  0  0
    8.9758   -6.5559   16.4090 C   0  0  0  0  0  0  0  0  0  0  0  0
   11.4433   -4.3132   20.8884 C   0  0  0  0  0  0  0  0  0  0  0  0
    4.5431   -9.9073   17.9569 C   0  0  0  0  0  0  0  0  0  0  0  0
   12.0527   -4.8853   20.0060 C   0  0  0  0  0  0  0  0  0  0  0  0
    0.2029  -11.4470   18.7231 C   0  0  0  0  0  0  0  0  0  0  0  0
   10.1453   -4.2105   19.7602 C   0  0  0  0  0  0  0  0  0  0  0  0
    8.2313   -6.5936   17.6568 C   0  0  0  0  0  0  0  0  0  0  0  0
    7.9884   -8.1778   15.5722 C   0  0  0  0  0  0  0  0  0  0  0  0
    4.6901   -8.2372   16.2907 C   0  0  0  0  0  0  0  0  0  0  0  0
   13.0931   -4.1059   22.4379 O   0  0  0  0  0  0  0  0  0  0  0  0
    5.9347   -8.0215   16.6981 N   0  0  0  0  0  0  0  0  0  0  0  0
   12.1528   -5.3219   18.7292 C   0  0  0  0  0  0  0  0  0  0  0  0
   10.2231   -3.5309   21.6724 C   0  0  0  0  0  0  0  0  0  0  0  0
    2.3454   -9.6083   16.9472 C   0  0  0  0  0  0  0  0  0  0  0  0
    7.9533   -8.0532   17.8670 C   0  0  0  0  0  0  0  0  0  0  0  0
    0.1949  -12.1221   19.9159 C   0  0  0  0  0  0  0  0  0  0  0  0
    3.6180   -8.2361   16.4988 C   0  0  0  0  0  0  0  0  0  0  0  0
    9.1734   -5.3904   16.5532 O   0  0  0  0  0  0  0  0  0  0  0  0
   10.4218   -4.6194   18.8241 C   0  0  0  0  0  0  0  0  0  0  0  0
   12.1888   -4.5621   23.0842 O   0  0  0  0  0  0  0  0  0  0  0  0
    1.5755  -11.9310   19.9171 C   0  0  0  0  0  0  0  0  0  0  0  0
    4.2449   -9.7275   17.6327 C   0  0  0  0  0  0  0  0  0  0  0  0
    2.1199  -10.5917   18.0542 C   0  0  0  0  0  0  0  0  0  0  0  0
    0.9509  -11.0313   18.1838 C   0  0  0  0  0  0  0  0  0  0  0  0
    6.8235   -7.0429   15.3395 C   0  0  0  0  0  0  0  0  0  0  0  0
   10.6890   -5.2356   18.2187 C   0  0  0  0  0  0  0  0  0  0  0  0
    2.2875  -11.6668   19.5257 C   0  0  0  0  0  0  0  0  0  0  0  0
    6.9884   -8.2694   17.1923 C   0  0  0  0  0  0  0  0  0  0  0  0
  1 16  1  0
  1 26  1  0
  2  7  1  0
  4 20  1  0
  4 23  4  0
  6  8  4  0
  6 19  1  0
  8 10  4  0
  8 12  4  0
  9 28  4  0
 10 18  4  0
 11 22  4  0
 11 30  4  0
 12 25  4  0
 14 31  1  0
 14 34  1  0
 15 17  1  0
 15 23  4  0
 17 34  1  0
 18 32  4  0
 21 34  1  0
 22 27  4  0
 25 32  4  0
 27 33  4  0
 29 30  4  0
M  END
$$$$

 Created by Python create_sdf_string function

 34 55  0  0  0  0  0  0  0  0999 V2000
   12.4640   -4.3932   23.0883 C   0  0  0  0  0  0  0  0  0  0  0  0
    8.6844   -5.1116   16.6784 C   0  0  0  0  0  0  0  0  0  0  0  0
   10.9463   -3.8886   22.3979 C   0  0  0  0  0  0  0  0  0  0  0  0
    8.3448   -4.7659   16.2669 C   0  0  0  0  0  0  0  0  0  0  0  0
   -0.0282  -11.7326   19.3061 C   0  0  0  0  0  0  0  0  0  0  0  0
    7.7417   -6.5337   18.2025 N   0  0  0  0  0  0  0  0  0  0  0  0
    5.4311   -8.1095   15.2574 N   0  0  0  0  0  0  0  0  0  0  0  0
   14.6069   -3.3319   23.3675 O   0  0  0  0  0  0  0  0  0  0  0  0
    6.8417   -7.5028   17.1901 Se  0  0  0  0  0  0  0  0  0  0  0  0
   11.0297   -3.1463   20.5732 C   0  0  0  0  0  0  0  0  0  0  0  0
   -0.2047  -12.4808   19.1884 C   0  0  0  0  0  0  0  0  0  0  0  0
    9.1203   -4.9944   16.7783 O   0  0  0  0  0  0  0  0  0  0  0  0
   11.7222   -4.9385   19.0562 N   0  0  0  0  0  0  0  0  0  0  0  0
   12.2829   -4.6343   22.7687 O   0  0  0  0  0  0  0  0  0  0  0  0
    1.6165  -12.0287   20.2469 C   0  0  0  0  0  0  0  0  0  0  0  0
    2.6994  -12.1798   18.1723 C   0  0  0  0  0  0  0  0  0  0  0  0
    1.3075  -11.2877   18.2792 Br  0  0  0  0  0  0  0  0  0  0  0  0
    7.4330   -6.8091   15.7151 C   0  0  0  0  0  0  0  0  0  0  0  0
   10.8741   -5.1571   18.7891 C   0  0  0  0  0  0  0  0  0  0  0  0
    2.3247  -11.4776   19.3802 C   0  0  0  0  0  0  0  0  0  0  0  0
    8.9742   -7.9196   15.5663 He  0  0  0  0  0  0  0  0  0  0  0  0
    2.7938   -9.3278   16.1427 He  0  0  0  0  0  0  0  0  0  0  0  0
    2.1378  -12.7455   19.6464 He  0  0  0  0  0  0  0  0  0  0  0  0
   11.6047   -4.0120   20.2951 He  0  0  0  0  0  0  0  0  0  0  0  0
    5.5900  -11.0639   19.2639 He  0  0  0  0  0  0  0  0  0  0  0  0
   11.7778   -5.5449   19.6119 He  0  0  0  0  0  0  0  0  0  0  0  0
   11.6768   -5.4314   20.6710 He  0  0  0  0  0  0  0  0  0  0  0  0
    8.7799   -8.7170   14.7605 He  0  0  0  0  0  0  0  0  0  0  0  0
   11.9963   -5.8017   17.8815 He  0  0  0  0  0  0  0  0  0  0  0  0
    2.4700   -8.6122   16.8969 He  0  0  0  0  0  0  0  0  0  0  0  0
    6.5815   -8.0247   18.0415 He  0  0  0  0  0  0  0  0  0  0  0  0
    2.5189   -9.6063   16.1190 He  0  0  0  0  0  0  0  0  0  0  0  0
    4.2078   -9.6324   17.6558 He  0  0  0  0  0  0  0  0  0  0  0  0
    6.5346   -8.0754   15.1643 He  0  0  0  0  0  0  0  0  0  0  0  0
  1  4  4  0
  1  8  4  0
  1 14  1  0
  2  3  2  0
  2  4  4  0
  2  5  3  0
  2  7  4  0
  2 10  2  0
  2 12  1  0
  2 15  2  0
  2 16  2  0
  2 18  4  0
  2 20  2  0
  3  6  1  0
  3  7  4  0
  3 10  1  0
  3 18  4  0
  3 19  3  0
  4  9  2  0
  4 10  2  0
  4 12  4  0
  4 16  2  0
  5 11  4  0
  5 15  4  0
  5 17  3  0
  6  8  4  0
  6 14  4  0
  6 15  2  0
  6 16  2  0
  6 18  3  0
  7 10  1  0
  7 11  2  0
  7 12  3  0
  7 14  3  0
  7 18  1  0
  8 14  2  0
  8 17  2  0
  9 11  2  0
  9 14  4  0
  9 17  1  0
 10 12  1  0
 10 14  3  0
 10 16  4  0
 10 17  2  0
 10 18  3  0
 11 13  1  0
 11 15  4  0
 11 18  1  0
 11 20  4  0
 12 16  1  0
 12 18  3  0
 13 18  4  0
 14 15  2  0
 15 20  4  0
 16 17  3  0
M  END
$$$$

 Created by Python create_sdf_string function

 34 21  0  0  0  0  0  0  0  0999 V2000
   12.7201   -4.2871   22.9863 C   0  0  0  0  0  0  0  0  0  0  0  0
    8.2992   -7.6473   15.8837 C   0  0  0  0  0  0  0  0  0  0  0  0
    9.1104   -5.3914   16.7821 C   0  0  0  0  0  0  0  0  0  0  0  0
    2.7626   -9.3780   16.6547 C   0  0  0  0  0  0  0  0  0  0  0  0
    2.4534  -11.9184   19.4169 C   0  0  0  0  0  0  0  0  0  0  0  0
   11.2707   -3.5912   22.3893 C   0  0  0  0  0  0  0  0  0  0  0  0
    8.9259   -4.9650   16.3376 C   0  0  0  0  0  0  0  0  0  0  0  0
   11.4976   -4.1035   20.9389 C   0  0  0  0  0  0  0  0  0  0  0  0
    4.8836   -9.9891   18.2351 O   0  0  0  0  0  0  0  0  0  0  0  0
   11.5791   -5.3817   19.9736 C   0  0  0  0  0  0  0  0  0  0  0  0
    0.2545  -11.6024   18.7660 C   0  0  0  0  0  0  0  0  0  0  0  0
   11.9029   -5.1573   20.6110 C   0  0  0  0  0  0  0  0  0  0  0  0
    8.1340   -6.6435   17.7117 C   0  0  0  0  0  0  0  0  0  0  0  0
    7.9706   -8.4207   15.1162 C   0  0  0  0  0  0  0  0  0  0  0  0
    5.3203   -8.5435   15.9796 C   0  0  0  0  0  0  0  0  0  0  0  0
   13.7811   -3.6623   23.1272 O   0  0  0  0  0  0  0  0  0  0  0  0
    6.7529   -7.8309   17.0895 C   0  0  0  0  0  0  0  0  0  0  0  0
   11.0222   -5.3975   18.2416 C   0  0  0  0  0  0  0  0  0  0  0  0
   11.1300   -3.7341   20.9074 C   0  0  0  0  0  0  0  0  0  0  0  0
    2.8829   -9.3108   16.7828 C   0  0  0  0  0  0  0  0  0  0  0  0
    6.5180   -7.9672   17.8402 C   0  0  0  0  0  0  0  0  0  0  0  0
    0.0736  -11.9256   19.1936 C   0  0  0  0  0  0  0  0  0  0  0  0
    2.7607   -9.3995   16.5296 C   0  0  0  0  0  0  0  0  0  0  0  0
    9.4272   -4.8468   16.6583 C   0  0  0  0  0  0  0  0  0  0  0  0
   11.1109   -4.5691   19.0235 C   0  0  0  0  0  0  0  0  0  0  0  0
   12.7032   -4.7844   23.2000 O   0  0  0  0  0  0  0  0  0  0  0  0
    1.4448  -12.1554   20.3418 C   0  0  0  0  0  0  0  0  0  0  0  0
    4.4793   -9.5411   17.3716 C   0  0  0  0  0  0  0  0  0  0  0  0
    2.6475  -10.9598   18.4463 C   0  0  0  0  0  0  0  0  0  0  0  0
    1.4027  -10.7978   18.0736 C   0  0  0  0  0  0  0  0  0  0  0  0
    7.6563   -7.2834   16.1202 C   0  0  0  0  0  0  0  0  0  0  0  0
   10.6395   -5.1902   18.8409 C   0  0  0  0  0  0  0  0  0  0  0  0
    2.0704  -11.9826   19.7813 C   0  0  0  0  0  0  0  0  0  0  0  0
    6.3375   -8.4574   15.9596 C   0  0  0  0  0  0  0  0  0  0  0  0
  1 16  2  0
  1 26  1  0
  2 31  4  0
  3  7  4  0
  4 20  4  0
  4 23  4  0
  5 29  4  0
  5 33  4  0
  6 19  1  0
  7 24  4  0
  8 19  4  0
  9 28  4  0
 10 12  4  0
 11 22  4  0
 11 30  4  0
 15 34  1  0
 17 21  1  0
 17 34  1  0
 18 25  4  0
 27 33  4  0
 29 30  4  0
M  END
$$$$

 Created by Python create_sdf_string function

 34 83  0  0  0  0  0  0  0  0999 V2000
   13.1659   -3.9572   22.9145 C   0  0  0  0  0  0  0  0  0  0  0  0
    2.2726   -9.8911   16.5123 C   0  0  0  0  0  0  0  0  0  0  0  0
    2.4063  -13.0186   20.0209 C   0  0  0  0  0  0  0  0  0  0  0  0
   11.2298   -3.5094   21.9003 C   0  0  0  0  0  0  0  0  0  0  0  0
   11.5798   -3.9877   21.8824 C   0  0  0  0  0  0  0  0  0  0  0  0
   11.8384   -6.5711   18.6441 C   0  0  0  0  0  0  0  0  0  0  0  0
    0.4263  -11.2319   18.3577 C   0  0  0  0  0  0  0  0  0  0  0  0
    8.3564   -6.5275   17.4376 O   0  0  0  0  0  0  0  0  0  0  0  0
    4.6966   -7.8909   14.0283 C   0  0  0  0  0  0  0  0  0  0  0  0
   13.5960   -4.7237   23.2466 O   0  0  0  0  0  0  0  0  0  0  0  0
    6.7159   -7.8288   15.8739 C   0  0  0  0  0  0  0  0  0  0  0  0
   10.8399   -5.8254   18.2338 C   0  0  0  0  0  0  0  0  0  0  0  0
   11.5069   -3.9877   19.9481 Br  0  0  0  0  0  0  0  0  0  0  0  0
    0.2084  -11.9324   19.3593 O   0  0  0  0  0  0  0  0  0  0  0  0
    2.9005  -10.7615   16.3343 S   0  0  0  0  0  0  0  0  0  0  0  0
    9.3690   -4.9244   16.8263 C   0  0  0  0  0  0  0  0  0  0  0  0
   12.1393   -4.4979   22.9991 O   0  0  0  0  0  0  0  0  0  0  0  0
    1.6098  -12.3981   20.3787 C   0  0  0  0  0  0  0  0  0  0  0  0
    4.8052   -9.3517   17.6547 C   0  0  0  0  0  0  0  0  0  0  0  0
    1.9242  -10.5692   17.9693 C   0  0  0  0  0  0  0  0  0  0  0  0
    6.5091   -7.6675   14.7300 F   0  0  0  0  0  0  0  0  0  0  0  0
   10.6093   -4.8545   19.2487 C   0  0  0  0  0  0  0  0  0  0  0  0
    2.1170  -11.6929   20.1164 C   0  0  0  0  0  0  0  0  0  0  0  0
    8.1611   -8.9633   17.1857 He  0  0  0  0  0  0  0  0  0  0  0  0
   10.3714   -5.6163   18.1547 He  0  0  0  0  0  0  0  0  0  0  0  0
   10.0052   -4.3468   16.3133 He  0  0  0  0  0  0  0  0  0  0  0  0
    4.9584   -9.8587   18.3029 He  0  0  0  0  0  0  0  0  0  0  0  0
   11.5426   -5.0477   19.7997 He  0  0  0  0  0  0  0  0  0  0  0  0
    7.8764   -7.6595   15.6947 He  0  0  0  0  0  0  0  0  0  0  0  0
    3.1066   -9.6752   17.8352 He  0  0  0  0  0  0  0  0  0  0  0  0
    6.5948   -9.2837   18.2500 He  0  0  0  0  0  0  0  0  0  0  0  0
   11.4183   -5.9818   19.7083 He  0  0  0  0  0  0  0  0  0  0  0  0
    1.1632  -10.4436   18.9115 He  0  0  0  0  0  0  0  0  0  0  0  0
    6.1106   -8.0975   14.5983 He  0  0  0  0  0  0  0  0  0  0  0  0
  1  3  3  0
  1  5  1  0
  1  6  2  0
  1 10  1  0
  1 11  1  0
  1 14  1  0
  1 15  3  0
  1 16  4  0
  1 19  3  0
  2  4  4  0
  2  7  1  0
  2 13  4  0
  2 15  4  0
  2 17  1  0
  3  6  3  0
  3  8  1  0
  3 11  1  0
  3 16  2  0
  3 18  3  0
  3 20  1  0
  3 21  3  0
  4  8  3  0
  4 10  3  0
  4 11  1  0
  4 12  4  0
  5 12  1  0
  5 13  4  0
  5 14  1  0
  5 18  4  0
  5 20  1  0
  6 13  3  0
  6 15  1  0
  6 18  1  0
  6 20  1  0
  7  9  2  0
  7 13  4  0
  7 14  4  0
  7 20  4  0
  7 21  2  0
  7 23  2  0
  8 15  4  0
  8 20  2  0
  8 21  2  0
  8 22  2  0
  8 23  3  0
  9 12  2  0
  9 16  4  0
  9 17  3  0
  9 18  2  0
 10 11  4  0
 10 13  1  0
 10 19  1  0
 10 20  3  0
 10 21  4  0
 10 22  2  0
 10 23  3  0
 11 15  4  0
 11 16  1  0
 11 17  3  0
 11 19  1  0
 12 13  2  0
 12 14  1  0
 12 15  2  0
 12 19  4  0
 12 22  1  0
 13 16  3  0
 13 18  2  0
 13 19  2  0
 13 20  2  0
 13 22  2  0
 13 23  1  0
 14 15  3  0
 15 16  2  0
 15 17  3  0
 15 18  4  0
 15 19  3  0
 15 20  1  0
 17 19  4  0
 17 20  2  0
 17 21  1  0
 17 23  2  0
 18 21  2  0
 20 22  4  0
M  END
$$$$

 Created by Python create_sdf_string function

 34 18  0  0  0  0  0  0  0  0999 V2000
   12.8608   -4.3856   22.8653 C   0  0  0  0  0  0  0  0  0  0  0  0
    8.0289   -8.1905   17.2440 C   0  0  0  0  0  0  0  0  0  0  0  0
    9.8831   -5.4808   17.5752 N   0  0  0  0  0  0  0  0  0  0  0  0
    2.7924   -9.2614   16.2261 C   0  0  0  0  0  0  0  0  0  0  0  0
    1.5548  -12.3168   20.2331 C   0  0  0  0  0  0  0  0  0  0  0  0
   11.2913   -3.6141   21.7107 C   0  0  0  0  0  0  0  0  0  0  0  0
    9.8235   -4.2966   16.4037 O   0  0  0  0  0  0  0  0  0  0  0  0
   12.0141   -4.1883   21.7611 C   0  0  0  0  0  0  0  0  0  0  0  0
    4.6953   -9.5635   17.8466 N   0  0  0  0  0  0  0  0  0  0  0  0
   11.3853   -6.0092   18.9729 C   0  0  0  0  0  0  0  0  0  0  0  0
    0.4435  -11.3509   18.4223 C   0  0  0  0  0  0  0  0  0  0  0  0
   11.9223   -5.3200   20.1352 C   0  0  0  0  0  0  0  0  0  0  0  0
    8.5703   -6.5583   17.0929 C   0  0  0  0  0  0  0  0  0  0  0  0
    7.9804   -7.2427   15.8790 C   0  0  0  0  0  0  0  0  0  0  0  0
    4.4290   -8.4318   15.0805 C   0  0  0  0  0  0  0  0  0  0  0  0
   13.7324   -4.5278   22.9641 O   0  0  0  0  0  0  0  0  0  0  0  0
    7.0647   -8.0476   16.5213 C   0  0  0  0  0  0  0  0  0  0  0  0
   10.1919   -5.1224   17.7643 C   0  0  0  0  0  0  0  0  0  0  0  0
   11.0996   -4.0327   20.3671 C   0  0  0  0  0  0  0  0  0  0  0  0
    3.1875   -9.9118   17.6641 N   0  0  0  0  0  0  0  0  0  0  0  0
    6.4647   -8.5876   18.0116 C   0  0  0  0  0  0  0  0  0  0  0  0
    0.1212  -12.1099   19.1125 C   0  0  0  0  0  0  0  0  0  0  0  0
    2.7066   -9.5400   16.8295 N   0  0  0  0  0  0  0  0  0  0  0  0
    9.2299   -5.1584   16.5978 C   0  0  0  0  0  0  0  0  0  0  0  0
   11.5124   -5.3931   19.8771 C   0  0  0  0  0  0  0  0  0  0  0  0
   12.0882   -4.4302   23.5664 O   0  0  0  0  0  0  0  0  0  0  0  0
    1.9159  -12.3491   20.5357 C   0  0  0  0  0  0  0  0  0  0  0  0
    5.0764   -9.0990   17.2905 C   0  0  0  0  0  0  0  0  0  0  0  0
    2.2440  -11.0524   18.7217 C   0  0  0  0  0  0  0  0  0  0  0  0
    1.6462  -10.5926   17.9981 C   0  0  0  0  0  0  0  0  0  0  0  0
    6.5415   -7.7581   15.4324 C   0  0  0  0  0  0  0  0  0  0  0  0
   10.6242   -4.5601   19.0928 C   0  0  0  0  0  0  0  0  0  0  0  0
    2.3058  -11.8387   19.6459 C   0  0  0  0  0  0  0  0  0  0  0  0
    5.6856   -8.2289   15.4745 C   0  0  0  0  0  0  0  0  0  0  0  0
  1  8  1  0
  1 16  1  0
  1 26  2  0
  2 17  4  0
  3 18  1  0
  4 15  4  0
  4 23  4  0
  5 27  4  0
  6  8  1  0
  9 28  4  0
 10 12  4  0
 11 22  4  0
 11 30  4  0
 15 34  4  0
 27 33  4  0
 29 30  4  0
 29 33  4  0
 31 34  4  0
M  END
$$$$

 Created by Python create_sdf_string function

 34 79  0  0  0  0  0  0  0  0999 V2000
    6.6915   -8.3883   17.8167 P   0  0  0  0  0  0  0  0  0  0  0  0
    9.8776   -5.1255   18.1880 F   0  0  0  0  0  0  0  0  0  0  0  0
    3.0124   -9.1355   16.1990 C   0  0  0  0  0  0  0  0  0  0  0  0
    0.8617  -12.4737   19.6416 Se  0  0  0  0  0  0  0  0  0  0  0  0
   11.2940   -3.4050   21.3900 C   0  0  0  0  0  0  0  0  0  0  0  0
    9.9429   -3.7300   15.8051 O   0  0  0  0  0  0  0  0  0  0  0  0
    5.7286   -9.8796   17.9970 P   0  0  0  0  0  0  0  0  0  0  0  0
   11.1295   -5.5411   20.3919 C   0  0  0  0  0  0  0  0  0  0  0  0
    8.6596   -7.5671   16.0080 Br  0  0  0  0  0  0  0  0  0  0  0  0
    6.9650   -8.5729   17.2311 C   0  0  0  0  0  0  0  0  0  0  0  0
    9.3203   -4.5256   18.3258 O   0  0  0  0  0  0  0  0  0  0  0  0
   12.1016   -4.8944   22.1147 C   0  0  0  0  0  0  0  0  0  0  0  0
    0.2384  -12.1024   19.1851 C   0  0  0  0  0  0  0  0  0  0  0  0
    8.6597   -5.1611   16.6928 C   0  0  0  0  0  0  0  0  0  0  0  0
   11.1278   -7.1150   17.1923 C   0  0  0  0  0  0  0  0  0  0  0  0
   12.3682   -4.4846   23.8851 O   0  0  0  0  0  0  0  0  0  0  0  0
    1.7611  -12.4357   20.3808 P   0  0  0  0  0  0  0  0  0  0  0  0
    5.4947   -9.5195   16.7849 C   0  0  0  0  0  0  0  0  0  0  0  0
    2.7986  -11.8329   18.1935 O   0  0  0  0  0  0  0  0  0  0  0  0
    1.4966  -10.5090   17.9238 C   0  0  0  0  0  0  0  0  0  0  0  0
    6.7186   -8.1494   16.1620 C   0  0  0  0  0  0  0  0  0  0  0  0
   10.4512   -4.5544   19.0335 C   0  0  0  0  0  0  0  0  0  0  0  0
    2.5237  -11.2344   19.4274 S   0  0  0  0  0  0  0  0  0  0  0  0
   12.5776   -4.7688   22.9455 He  0  0  0  0  0  0  0  0  0  0  0  0
   11.6580   -5.2421   21.8211 He  0  0  0  0  0  0  0  0  0  0  0  0
    0.4152  -11.5128   18.7448 He  0  0  0  0  0  0  0  0  0  0  0  0
   11.2683   -6.2151   20.7260 He  0  0  0  0  0  0  0  0  0  0  0  0
   10.0759   -7.0438   17.0513 He  0  0  0  0  0  0  0  0  0  0  0  0
    4.0265   -7.5166   14.0406 He  0  0  0  0  0  0  0  0  0  0  0  0
   14.6745   -4.0978   23.7035 He  0  0  0  0  0  0  0  0  0  0  0  0
    2.2690   -8.8806   18.3676 He  0  0  0  0  0  0  0  0  0  0  0  0
    5.4591   -8.8749   18.2913 He  0  0  0  0  0  0  0  0  0  0  0  0
    1.5739   -9.6189   16.4634 He  0  0  0  0  0  0  0  0  0  0  0  0
    7.6974   -7.8550   16.5174 He  0  0  0  0  0  0  0  0  0  0  0  0
  1  2  2  0
  1  4  2  0
  1  6  1  0
  1 10  4  0
  1 11  4  0
  1 13  2  0
  1 14  4  0
  1 17  1  0
  1 20  2  0
  1 21  4  0
  2  4  2  0
  2  5  2  0
  2  6  1  0
  2  7  3  0
  2  9  2  0
  2 10  1  0
  2 15  3  0
  2 18  2  0
  2 19  2  0
  2 20  2  0
  3 10  3  0
  3 12  3  0
  3 13  4  0
  3 21  3  0
  4  6  4  0
  4  8  2  0
  4 13  3  0
  4 16  1  0
  4 18  1  0
  4 22  4  0
  4 23  4  0
  5  6  2  0
  5  8  2  0
  5 18  4  0
  6 12  4  0
  6 13  2  0
  6 14  1  0
  6 16  1  0
  6 17  1  0
  6 20  3  0
  6 21  3  0
  7  8  3  0
  7 11  2  0
  7 16  3  0
  7 18  3  0
  7 20  3  0
  7 22  2  0
  8 12  4  0
  8 19  1  0
  8 21  4  0
  8 22  2  0
  9 12  1  0
  9 13  2  0
  9 14  2  0
  9 18  2  0
  9 21  1  0
  9 23  1  0
 10 11  1  0
 10 16  1  0
 10 17  4  0
 10 21  2  0
 10 23  1  0
 11 15  2  0
 11 16  2  0
 11 19  1  0
 11 20  1  0
 12 14  4  0
 12 15  3  0
 12 16  1  0
 12 19  4  0
 12 21  4  0
 13 15  4  0
 13 16  2  0
 14 23  2  0
 15 16  3  0
 15 18  1  0
 17 21  3  0
 19 23  2  0
 20 21  2  0
M  END
$$$$

 Created by Python create_sdf_string function

 34 31  0  0  0  0  0  0  0  0999 V2000
   12.8649   -4.5339   23.2548 C   0  0  0  0  0  0  0  0  0  0  0  0
    6.9697   -8.2624   17.4202 C   0  0  0  0  0  0  0  0  0  0  0  0
    9.8545   -4.9778   17.7680 C   0  0  0  0  0  0  0  0  0  0  0  0
    2.8002   -9.0545   16.4755 C   0  0  0  0  0  0  0  0  0  0  0  0
    1.4594  -12.1138   19.9864 C   0  0  0  0  0  0  0  0  0  0  0  0
   11.0821   -3.7573   21.3355 C   0  0  0  0  0  0  0  0  0  0  0  0
    9.6026   -4.0808   16.2533 O   0  0  0  0  0  0  0  0  0  0  0  0
   11.9055   -4.4706   21.8643 C   0  0  0  0  0  0  0  0  0  0  0  0
    4.8249   -9.7482   17.9220 C   0  0  0  0  0  0  0  0  0  0  0  0
   11.3661   -5.4129   20.4579 C   0  0  0  0  0  0  0  0  0  0  0  0
    0.5363  -11.3203   18.3167 C   0  0  0  0  0  0  0  0  0  0  0  0
   11.3085   -5.8412   20.2240 C   0  0  0  0  0  0  0  0  0  0  0  0
    9.1609   -6.7545   17.2404 C   0  0  0  0  0  0  0  0  0  0  0  0
    8.5204   -7.3292   16.1932 C   0  0  0  0  0  0  0  0  0  0  0  0
    4.1892   -8.3986   15.5337 C   0  0  0  0  0  0  0  0  0  0  0  0
   14.1214   -4.4296   23.3467 O   0  0  0  0  0  0  0  0  0  0  0  0
    6.3681   -8.5295   17.2359 C   0  0  0  0  0  0  0  0  0  0  0  0
   10.0934   -4.4452   18.4578 C   0  0  0  0  0  0  0  0  0  0  0  0
   12.2808   -4.7033   22.1316 C   0  0  0  0  0  0  0  0  0  0  0  0
    3.2277   -9.7967   17.3854 C   0  0  0  0  0  0  0  0  0  0  0  0
    5.5947   -9.1124   18.4607 C   0  0  0  0  0  0  0  0  0  0  0  0
    0.3056  -11.9432   19.1264 C   0  0  0  0  0  0  0  0  0  0  0  0
    1.5861   -9.5488   16.7419 N   0  0  0  0  0  0  0  0  0  0  0  0
    9.0652   -5.3153   16.5105 C   0  0  0  0  0  0  0  0  0  0  0  0
   10.1359   -6.7791   18.3965 C   0  0  0  0  0  0  0  0  0  0  0  0
   12.2753   -4.5661   24.1824 O   0  0  0  0  0  0  0  0  0  0  0  0
    1.5423  -12.5746   20.8766 C   0  0  0  0  0  0  0  0  0  0  0  0
    5.0814   -9.0367   16.7179 C   0  0  0  0  0  0  0  0  0  0  0  0
    2.7390  -10.8638   18.5244 C   0  0  0  0  0  0  0  0  0  0  0  0
    1.4098  -10.5903   17.8414 C   0  0  0  0  0  0  0  0  0  0  0  0
    6.8899   -7.8432   15.9267 C   0  0  0  0  0  0  0  0  0  0  0  0
   10.5313   -4.4190   19.4639 C   0  0  0  0  0  0  0  0  0  0  0  0
    2.7815  -11.5975   19.3190 C   0  0  0  0  0  0  0  0  0  0  0  0
    7.7234   -7.4674   16.1625 C   0  0  0  0  0  0  0  0  0  0  0  0
  1  8  1  0
  1 16  1  0
  1 19  1  0
  1 26  2  0
  2 17  4  0
  3 18  4  0
  4 20  1  0
  4 23  4  0
  5 22  4  0
  5 27  4  0
  5 33  4  0
  6  8  4  0
  7 24  1  0
  8 19  4  0
  9 20  4  0
  9 21  4  0
 10 12  4  0
 11 22  4  0
 11 30  4  0
 12 25  4  0
 13 14  4  0
 13 24  4  0
 13 25  4  0
 14 34  4  0
 15 28  1  0
 18 32  4  0
 20 29  4  0
 23 30  4  0
 29 30  4  0
 29 33  4  0
 31 34  4  0
M  END
$$$$

 Created by Python create_sdf_string function

 34 85  0  0  0  0  0  0  0  0999 V2000
   12.4034   -4.6294   23.1792 C   0  0  0  0  0  0  0  0  0  0  0  0
    9.5986   -2.4680   17.5096 C   0  0  0  0  0  0  0  0  0  0  0  0
    0.8112  -11.5341   20.6144 C   0  0  0  0  0  0  0  0  0  0  0  0
   10.9739   -3.5205   21.4117 C   0  0  0  0  0  0  0  0  0  0  0  0
    8.7408   -4.1097   16.6098 P   0  0  0  0  0  0  0  0  0  0  0  0
   12.4549   -4.4798   21.5765 C   0  0  0  0  0  0  0  0  0  0  0  0
   12.0211   -5.4252   20.5410 O   0  0  0  0  0  0  0  0  0  0  0  0
    0.6656  -11.2282   18.3224 C   0  0  0  0  0  0  0  0  0  0  0  0
   12.1987   -6.9938   20.0679 C   0  0  0  0  0  0  0  0  0  0  0  0
    9.0212   -7.5621   16.4306 O   0  0  0  0  0  0  0  0  0  0  0  0
    4.6018   -9.0263   13.7898 F   0  0  0  0  0  0  0  0  0  0  0  0
   15.7172   -3.0253   23.4436 B   0  0  0  0  0  0  0  0  0  0  0  0
    6.6548   -8.8331   16.7258 S   0  0  0  0  0  0  0  0  0  0  0  0
    2.8371   -8.9086   18.3288 C   0  0  0  0  0  0  0  0  0  0  0  0
    5.6368   -9.5763   18.3097 N   0  0  0  0  0  0  0  0  0  0  0  0
    0.1521  -12.1290   19.4067 C   0  0  0  0  0  0  0  0  0  0  0  0
    1.1412   -9.6472   17.5661 C   0  0  0  0  0  0  0  0  0  0  0  0
    8.5550   -5.2273   16.0811 C   0  0  0  0  0  0  0  0  0  0  0  0
   10.6124   -6.1558   18.5254 C   0  0  0  0  0  0  0  0  0  0  0  0
   12.3945   -4.2346   24.6840 O   0  0  0  0  0  0  0  0  0  0  0  0
    4.9541   -8.9111   17.0098 C   0  0  0  0  0  0  0  0  0  0  0  0
    1.9348   -9.9874   18.4180 Br  0  0  0  0  0  0  0  0  0  0  0  0
    1.6942  -10.4138   17.5355 C   0  0  0  0  0  0  0  0  0  0  0  0
    7.9630   -7.8020   15.3420 C   0  0  0  0  0  0  0  0  0  0  0  0
    3.0314  -11.3697   19.2666 C   0  0  0  0  0  0  0  0  0  0  0  0
    8.4939   -9.7548   18.9678 He  0  0  0  0  0  0  0  0  0  0  0  0
    2.9921   -8.9865   16.4106 He  0  0  0  0  0  0  0  0  0  0  0  0
    4.0555  -10.5053   16.6332 He  0  0  0  0  0  0  0  0  0  0  0  0
    7.4254   -6.4434   17.7729 He  0  0  0  0  0  0  0  0  0  0  0  0
    8.5216   -5.6071   17.7519 He  0  0  0  0  0  0  0  0  0  0  0  0
   12.7887   -4.6384   20.4746 He  0  0  0  0  0  0  0  0  0  0  0  0
    1.4087  -13.4590   20.9679 He  0  0  0  0  0  0  0  0  0  0  0  0
   10.2238   -4.5499   19.4349 He  0  0  0  0  0  0  0  0  0  0  0  0
    5.9512   -7.6443   15.1838 He  0  0  0  0  0  0  0  0  0  0  0  0
  1  7  4  0
  1  9  1  0
  1 10  3  0
  1 12  1  0
  1 13  3  0
  1 17  3  0
  1 19  2  0
  1 20  2  0
  2  4  4  0
  2  5  2  0
  2  6  3  0
  2  8  2  0
  3  4  1  0
  3  8  2  0
  3  9  2  0
  3 11  4  0
  3 18  4  0
  3 19  1  0
  3 21  3  0
  3 23  3  0
  4  7  4  0
  4 10  1  0
  4 13  2  0
  4 15  3  0
  4 17  1  0
  4 24  1  0
  5  6  2  0
  5  7  1  0
  5  8  4  0
  5 11  2  0
  5 14  3  0
  5 16  1  0
  5 22  3  0
  5 23  4  0
  6 11  1  0
  6 18  2  0
  6 19  3  0
  6 21  4  0
  7 11  1  0
  7 13  4  0
  7 17  3  0
  7 19  4  0
  8 13  1  0
  8 15  3  0
  8 20  4  0
  8 23  4  0
  9 11  3  0
  9 14  3  0
  9 16  1  0
  9 18  4  0
  9 24  3  0
 10 11  3  0
 10 13  3  0
 10 15  4  0
 10 17  4  0
 11 15  2  0
 11 20  1  0
 11 23  3  0
 11 24  2  0
 11 25  2  0
 12 16  1  0
 12 19  3  0
 12 20  1  0
 12 21  3  0
 12 24  2  0
 13 19  4  0
 13 20  3  0
 13 21  3  0
 14 15  1  0
 14 19  4  0
 14 22  1  0
 15 17  3  0
 15 22  1  0
 15 23  3  0
 15 24  3  0
 15 25  3  0
 17 20  2  0
 17 21  3  0
 17 24  4  0
 18 19  2  0
 18 20  2  0
 18 21  2  0
 18 24  3  0
 19 22  4  0
 20 24  3  0
M  END
$$$$

 Created by Python create_sdf_string function

 34 25  0  0  0  0  0  0  0  0999 V2000
   13.0579   -4.0421   23.0797 C   0  0  0  0  0  0  0  0  0  0  0  0
    7.9772   -8.3038   17.9780 C   0  0  0  0  0  0  0  0  0  0  0  0
    9.9886   -4.0093   17.3406 C   0  0  0  0  0  0  0  0  0  0  0  0
    2.8692   -9.1692   16.2907 C   0  0  0  0  0  0  0  0  0  0  0  0
    1.0708  -12.1911   20.3413 C   0  0  0  0  0  0  0  0  0  0  0  0
   11.1440   -4.1090   21.3602 C   0  0  0  0  0  0  0  0  0  0  0  0
    9.4836   -4.4450   16.5549 C   0  0  0  0  0  0  0  0  0  0  0  0
   12.4698   -4.3801   21.8335 C   0  0  0  0  0  0  0  0  0  0  0  0
    4.3327   -9.1961   16.6237 C   0  0  0  0  0  0  0  0  0  0  0  0
   11.1577   -4.8944   20.4408 C   0  0  0  0  0  0  0  0  0  0  0  0
    0.6753  -11.3004   18.6312 C   0  0  0  0  0  0  0  0  0  0  0  0
   12.3832   -5.4806   20.0395 C   0  0  0  0  0  0  0  0  0  0  0  0
    8.2277   -6.6399   17.2110 C   0  0  0  0  0  0  0  0  0  0  0  0
    8.3565   -7.4784   16.8744 C   0  0  0  0  0  0  0  0  0  0  0  0
    4.8453   -8.5837   15.1455 C   0  0  0  0  0  0  0  0  0  0  0  0
   14.4399   -3.6691   23.1131 O   0  0  0  0  0  0  0  0  0  0  0  0
    6.4718   -8.5353   16.9206 C   0  0  0  0  0  0  0  0  0  0  0  0
    9.2489   -5.4639   17.8390 N   0  0  0  0  0  0  0  0  0  0  0  0
   12.8050   -4.9322   21.1284 C   0  0  0  0  0  0  0  0  0  0  0  0
    3.1665   -9.9430   17.6741 C   0  0  0  0  0  0  0  0  0  0  0  0
    5.5829   -9.2362   18.4008 N   0  0  0  0  0  0  0  0  0  0  0  0
    0.0488  -11.9691   19.4373 C   0  0  0  0  0  0  0  0  0  0  0  0
    1.1713   -9.9047   17.1336 C   0  0  0  0  0  0  0  0  0  0  0  0
    8.6365   -5.5555   16.3638 C   0  0  0  0  0  0  0  0  0  0  0  0
   10.5409   -5.6446   19.1317 C   0  0  0  0  0  0  0  0  0  0  0  0
   12.5020   -4.1173   24.0054 O   0  0  0  0  0  0  0  0  0  0  0  0
    1.4843  -12.4900   20.7043 C   0  0  0  0  0  0  0  0  0  0  0  0
    5.2155   -9.0326   17.0919 C   0  0  0  0  0  0  0  0  0  0  0  0
    2.4411  -10.3333   17.9836 C   0  0  0  0  0  0  0  0  0  0  0  0
    1.2494  -10.6609   18.0535 C   0  0  0  0  0  0  0  0  0  0  0  0
    7.8223   -7.5737   15.4541 C   0  0  0  0  0  0  0  0  0  0  0  0
   10.2622   -4.6038   18.9152 C   0  0  0  0  0  0  0  0  0  0  0  0
    2.6152  -11.4731   19.3338 C   0  0  0  0  0  0  0  0  0  0  0  0
    6.2586   -8.0707   15.4139 C   0  0  0  0  0  0  0  0  0  0  0  0
  1  8  1  0
  1 16  1  0
  1 26  2  0
  2 14  4  0
  3  7  4  0
  5 22  4  0
  5 27  4  0
  6  8  4  0
  6 10  4  0
  8 19  4  0
  9 15  4  0
  9 28  4  0
 11 22  4  0
 11 30  4  0
 12 19  4  0
 15 34  4  0
 17 28  4  0
 17 34  4  0
 20 29  4  0
 21 28  4  0
 23 30  4  0
 25 32  4  0
 27 33  4  0
 29 30  4  0
 31 34  4  0
M  END
$$$$

 Created by Python create_sdf_string function

 34 64  0  0  0  0  0  0  0  0999 V2000
   13.2294   -3.9674   22.8021 N   0  0  0  0  0  0  0  0  0  0  0  0
    2.9380   -9.0689   16.4167 C   0  0  0  0  0  0  0  0  0  0  0  0
   11.1309   -4.2073   20.9142 C   0  0  0  0  0  0  0  0  0  0  0  0
    9.0806   -3.9332   17.2617 C   0  0  0  0  0  0  0  0  0  0  0  0
    5.2104   -9.5179   15.5931 P   0  0  0  0  0  0  0  0  0  0  0  0
   11.8528   -5.9905   20.4698 N   0  0  0  0  0  0  0  0  0  0  0  0
    0.8342  -11.0723   18.9057 C   0  0  0  0  0  0  0  0  0  0  0  0
    8.8867   -8.0674   17.5585 P   0  0  0  0  0  0  0  0  0  0  0  0
   14.6572   -3.2445   23.7495 S   0  0  0  0  0  0  0  0  0  0  0  0
    5.5286   -8.4750   15.7992 C   0  0  0  0  0  0  0  0  0  0  0  0
    9.6402   -5.2060   17.4117 N   0  0  0  0  0  0  0  0  0  0  0  0
    2.5678   -8.6945   17.3140 O   0  0  0  0  0  0  0  0  0  0  0  0
    6.0482   -8.9830   18.2938 N   0  0  0  0  0  0  0  0  0  0  0  0
   -0.1605  -12.0536   19.3851 C   0  0  0  0  0  0  0  0  0  0  0  0
    2.2640   -9.6403   17.3202 Cl  0  0  0  0  0  0  0  0  0  0  0  0
   10.0484   -5.3673   18.6794 F   0  0  0  0  0  0  0  0  0  0  0  0
   12.5900   -4.0198   23.6410 O   0  0  0  0  0  0  0  0  0  0  0  0
    1.7124  -12.5439   21.0535 C   0  0  0  0  0  0  0  0  0  0  0  0
    5.0413   -9.0665   17.3966 C   0  0  0  0  0  0  0  0  0  0  0  0
    7.5103   -7.1496   16.4224 Cl  0  0  0  0  0  0  0  0  0  0  0  0
   10.4350   -4.8055   19.2494 C   0  0  0  0  0  0  0  0  0  0  0  0
    2.3584  -11.4234   19.4961 C   0  0  0  0  0  0  0  0  0  0  0  0
    4.9350   -8.5077   15.0944 O   0  0  0  0  0  0  0  0  0  0  0  0
    7.8379   -8.6269   19.1096 He  0  0  0  0  0  0  0  0  0  0  0  0
   10.8126   -4.6246   18.5278 He  0  0  0  0  0  0  0  0  0  0  0  0
    1.4830  -11.8992   19.9643 He  0  0  0  0  0  0  0  0  0  0  0  0
   13.2173   -4.3047   22.1452 He  0  0  0  0  0  0  0  0  0  0  0  0
   13.7960   -5.5517   20.8759 He  0  0  0  0  0  0  0  0  0  0  0  0
    7.3511   -7.6085   18.3062 He  0  0  0  0  0  0  0  0  0  0  0  0
    4.4382   -8.2698   15.3588 He  0  0  0  0  0  0  0  0  0  0  0  0
   13.2324   -5.6228   20.5688 He  0  0  0  0  0  0  0  0  0  0  0  0
    8.7739   -5.3094   16.2983 He  0  0  0  0  0  0  0  0  0  0  0  0
    1.6125  -11.0034   19.3232 He  0  0  0  0  0  0  0  0  0  0  0  0
    1.2411  -10.8581   18.0907 He  0  0  0  0  0  0  0  0  0  0  0  0
  1  6  4  0
  1 13  1  0
  1 17  2  0
  1 20  2  0
  2  6  4  0
  2 16  1  0
  2 20  3  0
  3  5  2  0
  3  6  4  0
  3  7  4  0
  3  9  2  0
  3 20  3  0
  4  5  1  0
  4  8  4  0
  4 10  4  0
  4 14  2  0
  4 16  3  0
  4 20  1  0
  5  6  3  0
  5  9  2  0
  5 11  2  0
  5 16  3  0
  5 18  3  0
  6  8  3  0
  6 12  4  0
  6 14  3  0
  7 13  4  0
  7 14  4  0
  8 15  3  0
  8 16  2  0
  8 19  2  0
  8 20  1  0
  8 22  3  0
  8 23  3  0
  9 21  3  0
  9 23  4  0
 10 13  1  0
 10 15  1  0
 10 17  1  0
 10 19  4  0
 11 13  1  0
 11 18  2  0
 11 20  3  0
 11 22  3  0
 12 13  4  0
 12 14  1  0
 12 16  2  0
 12 19  3  0
 13 14  2  0
 13 17  1  0
 13 20  3  0
 13 23  3  0
 14 15  3  0
 14 23  4  0
 15 21  4  0
 15 23  1  0
 16 17  4  0
 16 19  1  0
 16 21  4  0
 16 22  1  0
 17 19  3  0
 17 20  3  0
 19 23  4  0
 22 23  2  0
M  END
$$$$

 Created by Python create_sdf_string function

 34 25  0  0  0  0  0  0  0  0999 V2000
   13.3028   -3.9689   23.1245 C   0  0  0  0  0  0  0  0  0  0  0  0
    7.7765   -8.1104   18.1663 C   0  0  0  0  0  0  0  0  0  0  0  0
   11.0817   -4.6946   18.9716 C   0  0  0  0  0  0  0  0  0  0  0  0
    3.0209   -8.9378   16.1621 C   0  0  0  0  0  0  0  0  0  0  0  0
    1.3882  -11.8749   20.3093 C   0  0  0  0  0  0  0  0  0  0  0  0
   11.4263   -4.3216   21.4546 C   0  0  0  0  0  0  0  0  0  0  0  0
    9.9441   -4.3355   17.0568 C   0  0  0  0  0  0  0  0  0  0  0  0
   12.7351   -4.4596   21.8820 C   0  0  0  0  0  0  0  0  0  0  0  0
    5.1078   -8.8796   15.8177 C   0  0  0  0  0  0  0  0  0  0  0  0
   11.1771   -4.9474   20.3948 C   0  0  0  0  0  0  0  0  0  0  0  0
    0.4342  -11.2868   18.6713 C   0  0  0  0  0  0  0  0  0  0  0  0
   13.2462   -5.2983   20.7722 C   0  0  0  0  0  0  0  0  0  0  0  0
    7.4776   -7.6718   17.7239 C   0  0  0  0  0  0  0  0  0  0  0  0
    8.6555   -7.4470   17.3708 C   0  0  0  0  0  0  0  0  0  0  0  0
    3.9558   -8.6436   15.7306 C   0  0  0  0  0  0  0  0  0  0  0  0
   14.5358   -3.7811   23.1211 O   0  0  0  0  0  0  0  0  0  0  0  0
    5.6513   -8.6517   16.6621 C   0  0  0  0  0  0  0  0  0  0  0  0
    9.2439   -5.5751   17.2433 N   0  0  0  0  0  0  0  0  0  0  0  0
   13.1392   -5.4184   20.4420 C   0  0  0  0  0  0  0  0  0  0  0  0
    2.3695   -9.3602   17.0196 C   0  0  0  0  0  0  0  0  0  0  0  0
    5.9749   -8.7066   17.9802 N   0  0  0  0  0  0  0  0  0  0  0  0
    0.0329  -11.9675   19.4406 C   0  0  0  0  0  0  0  0  0  0  0  0
    2.1103   -9.7464   17.2231 C   0  0  0  0  0  0  0  0  0  0  0  0
    8.9156   -5.2988   16.4880 C   0  0  0  0  0  0  0  0  0  0  0  0
    9.8184   -5.6461   18.5116 C   0  0  0  0  0  0  0  0  0  0  0  0
   12.6225   -3.8072   24.0805 O   0  0  0  0  0  0  0  0  0  0  0  0
    1.3249  -12.4742   21.0061 C   0  0  0  0  0  0  0  0  0  0  0  0
    4.8498   -9.0894   17.4317 C   0  0  0  0  0  0  0  0  0  0  0  0
    2.0325  -11.0966   18.8749 C   0  0  0  0  0  0  0  0  0  0  0  0
    1.1100  -10.4957   17.8803 C   0  0  0  0  0  0  0  0  0  0  0  0
    7.8051   -7.0979   16.2804 C   0  0  0  0  0  0  0  0  0  0  0  0
   10.8708   -5.0219   19.2381 C   0  0  0  0  0  0  0  0  0  0  0  0
    2.4994  -11.5851   19.5803 C   0  0  0  0  0  0  0  0  0  0  0  0
    4.9036   -8.3882   15.5848 C   0  0  0  0  0  0  0  0  0  0  0  0
  1  8  1  0
  1 16  1  0
  1 26  2  0
  2 13  1  0
  3 32  4  0
  4 15  4  0
  4 20  4  0
  5 27  4  0
  5 33  4  0
  6  8  4  0
  6 10  4  0
  7 24  4  0
  8 12  4  0
  9 15  4  0
  9 17  4  0
 11 22  4  0
 11 30  4  0
 12 19  4  0
 14 31  1  0
 17 21  1  0
 17 28  4  0
 18 24  4  0
 20 23  1  0
 25 32  4  0
 29 33  4  0
M  END
$$$$

 Created by Python create_sdf_string function

 34 86  0  0  0  0  0  0  0  0999 V2000
    8.2255   -7.4980   18.3540 F   0  0  0  0  0  0  0  0  0  0  0  0
   10.9717   -4.3221   18.6588 C   0  0  0  0  0  0  0  0  0  0  0  0
    3.0710   -9.0944   16.2334 C   0  0  0  0  0  0  0  0  0  0  0  0
    1.7168  -12.3064   21.0222 C   0  0  0  0  0  0  0  0  0  0  0  0
   11.3414   -4.5228   21.2768 C   0  0  0  0  0  0  0  0  0  0  0  0
   12.9697   -4.3033   22.0081 C   0  0  0  0  0  0  0  0  0  0  0  0
    6.0888   -8.9166   16.9742 C   0  0  0  0  0  0  0  0  0  0  0  0
   11.0754   -3.6649   21.8851 C   0  0  0  0  0  0  0  0  0  0  0  0
    0.1661  -11.4758   18.4312 C   0  0  0  0  0  0  0  0  0  0  0  0
    7.1625   -7.5131   17.3880 O   0  0  0  0  0  0  0  0  0  0  0  0
   15.3954   -3.8288   23.3618 O   0  0  0  0  0  0  0  0  0  0  0  0
    6.0758   -7.9102   17.0003 S   0  0  0  0  0  0  0  0  0  0  0  0
    2.1731   -9.6346   17.1351 F   0  0  0  0  0  0  0  0  0  0  0  0
    5.7302   -9.1829   16.9319 N   0  0  0  0  0  0  0  0  0  0  0  0
    0.1308  -12.0709   19.1916 C   0  0  0  0  0  0  0  0  0  0  0  0
    9.3849   -5.1808   16.4488 C   0  0  0  0  0  0  0  0  0  0  0  0
   12.5239   -3.9849   24.1389 O   0  0  0  0  0  0  0  0  0  0  0  0
    1.1251  -12.1143   21.3848 F   0  0  0  0  0  0  0  0  0  0  0  0
    5.3309   -8.6470   17.6619 C   0  0  0  0  0  0  0  0  0  0  0  0
    1.9483  -11.3713   20.7551 C   0  0  0  0  0  0  0  0  0  0  0  0
    0.8818  -10.9960   18.2852 S   0  0  0  0  0  0  0  0  0  0  0  0
    8.8532   -8.3612   15.6055 Cl  0  0  0  0  0  0  0  0  0  0  0  0
   10.2594   -5.2472   18.9734 C   0  0  0  0  0  0  0  0  0  0  0  0
    2.9135  -11.5701   19.4893 C   0  0  0  0  0  0  0  0  0  0  0  0
   12.9766   -3.6846   23.0960 He  0  0  0  0  0  0  0  0  0  0  0  0
   10.4139   -5.6687   17.1376 He  0  0  0  0  0  0  0  0  0  0  0  0
   13.9134   -5.6589   21.6393 He  0  0  0  0  0  0  0  0  0  0  0  0
    9.3908   -7.1864   17.8807 He  0  0  0  0  0  0  0  0  0  0  0  0
    3.9627   -8.8116   14.9223 He  0  0  0  0  0  0  0  0  0  0  0  0
    8.7022   -5.0192   17.1307 He  0  0  0  0  0  0  0  0  0  0  0  0
   14.4720   -6.2851   20.4137 He  0  0  0  0  0  0  0  0  0  0  0  0
    2.4990   -9.2299   15.1480 He  0  0  0  0  0  0  0  0  0  0  0  0
    9.4801   -5.6137   17.0123 He  0  0  0  0  0  0  0  0  0  0  0  0
    5.8617   -8.0718   14.4960 He  0  0  0  0  0  0  0  0  0  0  0  0
  1  4  2  0
  1  8  3  0
  1 10  1  0
  1 13  3  0
  1 14  2  0
  1 19  2  0
  1 21  3  0
  1 23  2  0
  1 24  4  0
  2  4  4  0
  2  5  1  0
  2  7  4  0
  2  8  2  0
  2  9  3  0
  2 12  3  0
  2 16  2  0
  2 20  1  0
  2 22  2  0
  2 23  1  0
  3  6  4  0
  3 13  1  0
  3 16  2  0
  3 20  3  0
  4  6  4  0
  4 11  4  0
  4 13  4  0
  4 15  2  0
  4 20  3  0
  4 21  4  0
  4 24  4  0
  5  8  4  0
  5 10  1  0
  5 11  2  0
  5 14  2  0
  5 22  3  0
  6  8  1  0
  6 12  3  0
  6 17  4  0
  6 18  1  0
  6 19  4  0
  6 20  2  0
  6 24  3  0
  7  8  2  0
  7  9  2  0
  7 11  3  0
  7 12  4  0
  7 16  1  0
  7 17  4  0
  7 24  2  0
  8 10  4  0
  8 12  3  0
  8 15  2  0
  8 21  3  0
  8 22  1  0
  9 10  3  0
  9 13  4  0
  9 14  4  0
  9 15  4  0
  9 19  3  0
  9 21  4  0
 10 13  2  0
 10 14  1  0
 10 22  3  0
 10 24  2  0
 11 12  1  0
 11 22  1  0
 11 24  2  0
 12 24  3  0
 13 20  3  0
 13 21  3  0
 13 22  2  0
 14 16  3  0
 14 17  1  0
 14 20  1  0
 14 23  1  0
 15 16  4  0
 15 21  4  0
 15 23  3  0
 16 22  1  0
 17 20  3  0
 18 20  1  0
 18 23  4  0
 19 20  2  0
 19 22  2  0
 20 24  4  0
 22 23  3  0
M  END
$$$$

 Created by Python create_sdf_string function

 34 30  0  0  0  0  0  0  0  0999 V2000
   12.8132   -4.0001   22.9451 C   0  0  0  0  0  0  0  0  0  0  0  0
    8.3974   -7.3884   17.7403 C   0  0  0  0  0  0  0  0  0  0  0  0
   11.1375   -4.6178   19.8298 C   0  0  0  0  0  0  0  0  0  0  0  0
    2.6132   -9.4619   16.7004 C   0  0  0  0  0  0  0  0  0  0  0  0
    1.6911  -11.9068   20.4459 C   0  0  0  0  0  0  0  0  0  0  0  0
   11.4609   -4.4530   20.7845 C   0  0  0  0  0  0  0  0  0  0  0  0
   10.3587   -4.9829   17.5869 C   0  0  0  0  0  0  0  0  0  0  0  0
   12.9895   -4.5682   22.1569 C   0  0  0  0  0  0  0  0  0  0  0  0
    6.3175   -8.3873   16.2823 C   0  0  0  0  0  0  0  0  0  0  0  0
   11.2236   -4.0265   21.6386 C   0  0  0  0  0  0  0  0  0  0  0  0
    0.5397  -11.2635   18.4282 C   0  0  0  0  0  0  0  0  0  0  0  0
   13.4311   -5.3449   21.3792 C   0  0  0  0  0  0  0  0  0  0  0  0
    7.5545   -7.7433   17.2889 O   0  0  0  0  0  0  0  0  0  0  0  0
    9.4874   -7.0765   18.0867 C   0  0  0  0  0  0  0  0  0  0  0  0
    4.0688   -8.7796   15.5762 C   0  0  0  0  0  0  0  0  0  0  0  0
   14.5713   -4.0133   23.4017 O   0  0  0  0  0  0  0  0  0  0  0  0
    6.0723   -8.2427   17.2558 C   0  0  0  0  0  0  0  0  0  0  0  0
    9.0638   -5.3651   16.7624 C   0  0  0  0  0  0  0  0  0  0  0  0
   13.1100   -5.5750   20.4324 C   0  0  0  0  0  0  0  0  0  0  0  0
    2.2973  -10.0088   17.4595 C   0  0  0  0  0  0  0  0  0  0  0  0
    5.1828   -8.7270   17.4714 N   0  0  0  0  0  0  0  0  0  0  0  0
    0.1105  -11.7273   19.2694 C   0  0  0  0  0  0  0  0  0  0  0  0
    1.9658   -9.2613   15.6891 O   0  0  0  0  0  0  0  0  0  0  0  0
    9.2919   -5.2907   16.5811 C   0  0  0  0  0  0  0  0  0  0  0  0
    9.3679   -5.9354   17.2806 C   0  0  0  0  0  0  0  0  0  0  0  0
   12.6033   -3.5551   23.8885 O   0  0  0  0  0  0  0  0  0  0  0  0
    0.7781  -12.5605   21.7120 F   0  0  0  0  0  0  0  0  0  0  0  0
    4.8146   -8.8533   17.4509 C   0  0  0  0  0  0  0  0  0  0  0  0
    1.9451  -11.8457   20.1794 C   0  0  0  0  0  0  0  0  0  0  0  0
    1.2934  -10.8735   18.2357 C   0  0  0  0  0  0  0  0  0  0  0  0
    8.2298   -8.1378   15.4740 C   0  0  0  0  0  0  0  0  0  0  0  0
   10.5779   -5.1043   18.8394 C   0  0  0  0  0  0  0  0  0  0  0  0
    2.5894  -11.5235   19.4607 C   0  0  0  0  0  0  0  0  0  0  0  0
    5.5939   -8.4533   15.3573 C   0  0  0  0  0  0  0  0  0  0  0  0
  1  8  4  0
  1 10  4  0
  1 16  1  0
  1 26  2  0
  2 13  1  0
  2 14  4  0
  3  6  1  0
  3 32  1  0
  4 20  1  0
  4 23  2  0
  5 27  1  0
  5 29  4  0
  5 33  4  0
  6 10  4  0
  7 24  4  0
  7 32  1  0
  8 12  4  0
  9 17  4  0
  9 34  4  0
 11 22  4  0
 11 30  4  0
 12 19  4  0
 15 34  4  0
 17 21  4  0
 17 28  4  0
 18 24  4  0
 20 30  1  0
 21 28  4  0
 27 29  1  0
 29 33  4  0
M  END
$$$$

 Created by Python create_sdf_string function

 34 88  0  0  0  0  0  0  0  0999 V2000
   12.2317   -3.9729   22.9817 C   0  0  0  0  0  0  0  0  0  0  0  0
   10.1510   -4.6071   19.6494 F   0  0  0  0  0  0  0  0  0  0  0  0
    2.7313   -9.7040   16.9868 C   0  0  0  0  0  0  0  0  0  0  0  0
    2.9599  -12.2117   20.5321 S   0  0  0  0  0  0  0  0  0  0  0  0
   11.1327   -4.5963   20.7811 C   0  0  0  0  0  0  0  0  0  0  0  0
   11.2605   -4.0205   17.9542 C   0  0  0  0  0  0  0  0  0  0  0  0
   10.9919   -4.0695   20.7674 C   0  0  0  0  0  0  0  0  0  0  0  0
    0.5444  -11.5824   18.7896 C   0  0  0  0  0  0  0  0  0  0  0  0
    9.5665   -7.1669   18.1660 C   0  0  0  0  0  0  0  0  0  0  0  0
    3.7869   -9.7821   15.8282 O   0  0  0  0  0  0  0  0  0  0  0  0
    6.1012   -7.6910   16.8421 C   0  0  0  0  0  0  0  0  0  0  0  0
    8.5694   -6.5250   16.5908 P   0  0  0  0  0  0  0  0  0  0  0  0
    4.9616   -8.5975   17.8451 N   0  0  0  0  0  0  0  0  0  0  0  0
    0.0356  -11.2621   19.2038 C   0  0  0  0  0  0  0  0  0  0  0  0
    1.9794  -10.2034   14.7984 N   0  0  0  0  0  0  0  0  0  0  0  0
    9.3382   -5.5839   16.8553 C   0  0  0  0  0  0  0  0  0  0  0  0
   10.1595   -5.9467   16.8109 C   0  0  0  0  0  0  0  0  0  0  0  0
   12.0443   -3.8093   23.4957 O   0  0  0  0  0  0  0  0  0  0  0  0
    0.5731  -12.8093   21.5374 F   0  0  0  0  0  0  0  0  0  0  0  0
    5.0422   -9.2968   17.3159 C   0  0  0  0  0  0  0  0  0  0  0  0
    1.3083  -11.3666   18.1505 Cl  0  0  0  0  0  0  0  0  0  0  0  0
    8.6589   -8.7232   16.3860 C   0  0  0  0  0  0  0  0  0  0  0  0
   10.5206   -5.2147   18.8448 C   0  0  0  0  0  0  0  0  0  0  0  0
    2.5201  -11.7077   19.4342 C   0  0  0  0  0  0  0  0  0  0  0  0
    6.2973   -8.7269   16.6494 C   0  0  0  0  0  0  0  0  0  0  0  0
    9.3129   -6.7894   17.5391 He  0  0  0  0  0  0  0  0  0  0  0  0
   12.7229   -4.3756   20.6368 He  0  0  0  0  0  0  0  0  0  0  0  0
    6.9672  -10.1275   15.2995 He  0  0  0  0  0  0  0  0  0  0  0  0
   13.9377   -5.1423   22.0117 He  0  0  0  0  0  0  0  0  0  0  0  0
    7.7572   -8.0790   18.7306 He  0  0  0  0  0  0  0  0  0  0  0  0
   14.6909   -3.0057   22.4605 He  0  0  0  0  0  0  0  0  0  0  0  0
   13.5973   -6.8822   20.5541 He  0  0  0  0  0  0  0  0  0  0  0  0
    2.3658   -9.8255   18.7139 He  0  0  0  0  0  0  0  0  0  0  0  0
    1.0924  -12.9550   19.9537 He  0  0  0  0  0  0  0  0  0  0  0  0
  1  2  1  0
  1  5  2  0
  1  6  4  0
  1  7  4  0
  1  9  2  0
  1 13  3  0
  1 17  4  0
  1 25  2  0
  2  3  4  0
  2  6  1  0
  2  7  1  0
  2 12  2  0
  2 13  4  0
  2 14  3  0
  2 18  1  0
  2 23  1  0
  2 24  1  0
  2 25  2  0
  3  4  1  0
  3  5  2  0
  3 10  4  0
  3 11  3  0
  3 12  4  0
  3 15  3  0
  3 23  3  0
  4  7  2  0
  4  9  2  0
  4 11  4  0
  4 14  1  0
  4 19  1  0
  4 20  2  0
  4 21  1  0
  4 24  1  0
  5 13  1  0
  5 22  1  0
  6  7  2  0
  6  9  1  0
  6 10  3  0
  6 11  4  0
  6 14  4  0
  6 20  2  0
  6 21  1  0
  6 23  1  0
  6 24  2  0
  7  8  3  0
  7  9  2  0
  7 12  4  0
  7 15  1  0
  7 16  1  0
  7 22  3  0
  7 23  3  0
  7 25  3  0
  8 11  4  0
  8 18  4  0
  8 21  4  0
  9 13  4  0
  9 20  4  0
  9 25  1  0
 10 21  4  0
 10 24  4  0
 11 16  3  0
 11 19  3  0
 11 20  3  0
 11 21  3  0
 11 22  3  0
 12 14  4  0
 12 17  1  0
 12 24  1  0
 13 14  2  0
 13 16  2  0
 13 18  1  0
 13 23  2  0
 13 24  2  0
 13 25  2  0
 14 22  2  0
 15 17  3  0
 15 18  1  0
 15 20  2  0
 16 18  2  0
 16 25  3  0
 17 22  3  0
 17 23  3  0
 17 25  4  0
 21 24  1  0
 22 24  3  0
 22 25  2  0
 23 24  4  0
 24 25  2  0
M  END
$$$$

 Created by Python create_sdf_string function

 34 26  0  0  0  0  0  0  0  0999 V2000
   12.2736   -3.9476   22.4071 C   0  0  0  0  0  0  0  0  0  0  0  0
    8.9264   -7.1552   17.5724 C   0  0  0  0  0  0  0  0  0  0  0  0
   10.5514   -4.6360   19.3881 C   0  0  0  0  0  0  0  0  0  0  0  0
    2.8099   -9.6442   16.9081 C   0  0  0  0  0  0  0  0  0  0  0  0
    2.3840  -12.1373   20.2155 C   0  0  0  0  0  0  0  0  0  0  0  0
   11.4953   -4.4828   20.8124 C   0  0  0  0  0  0  0  0  0  0  0  0
   10.7800   -4.1346   17.9429 C   0  0  0  0  0  0  0  0  0  0  0  0
   12.6053   -4.6090   21.2551 C   0  0  0  0  0  0  0  0  0  0  0  0
    6.7830   -9.1281   15.5987 C   0  0  0  0  0  0  0  0  0  0  0  0
   11.1630   -4.1886   21.2332 C   0  0  0  0  0  0  0  0  0  0  0  0
    0.6808  -11.2127   18.4172 C   0  0  0  0  0  0  0  0  0  0  0  0
   13.5406   -5.0456   21.8188 C   0  0  0  0  0  0  0  0  0  0  0  0
    7.2621   -7.9568   17.6736 C   0  0  0  0  0  0  0  0  0  0  0  0
    9.6167   -6.9571   18.2956 C   0  0  0  0  0  0  0  0  0  0  0  0
    3.7072   -9.3705   16.2951 N   0  0  0  0  0  0  0  0  0  0  0  0
   14.2830   -3.7419   22.9270 O   0  0  0  0  0  0  0  0  0  0  0  0
    6.2993   -8.0124   17.4526 C   0  0  0  0  0  0  0  0  0  0  0  0
    8.4412   -6.1609   16.3763 N   0  0  0  0  0  0  0  0  0  0  0  0
   13.1705   -5.5617   20.5418 C   0  0  0  0  0  0  0  0  0  0  0  0
    2.7637  -10.3773   18.0179 C   0  0  0  0  0  0  0  0  0  0  0  0
    4.9904   -8.9643   17.8635 N   0  0  0  0  0  0  0  0  0  0  0  0
    0.2462  -11.8570   19.1898 C   0  0  0  0  0  0  0  0  0  0  0  0
    1.7822   -9.4880   16.1959 N   0  0  0  0  0  0  0  0  0  0  0  0
    9.5307   -5.0316   16.8101 C   0  0  0  0  0  0  0  0  0  0  0  0
    9.3948   -5.5315   16.9914 C   0  0  0  0  0  0  0  0  0  0  0  0
   12.0241   -3.5799   23.4912 O   0  0  0  0  0  0  0  0  0  0  0  0
    0.3570  -13.0966   21.6445 F   0  0  0  0  0  0  0  0  0  0  0  0
    4.7812   -9.0825   17.1963 C   0  0  0  0  0  0  0  0  0  0  0  0
    0.9878  -12.3737   20.3475 C   0  0  0  0  0  0  0  0  0  0  0  0
    1.5742  -10.7943   18.1010 C   0  0  0  0  0  0  0  0  0  0  0  0
    8.1490   -8.2431   16.4356 C   0  0  0  0  0  0  0  0  0  0  0  0
   10.5244   -5.2075   18.7617 C   0  0  0  0  0  0  0  0  0  0  0  0
    2.7536  -11.4291   19.1694 C   0  0  0  0  0  0  0  0  0  0  0  0
    6.2957   -8.9094   16.4091 C   0  0  0  0  0  0  0  0  0  0  0  0
  1  8  4  0
  1 10  4  0
  2 14  1  0
  2 31  1  0
  3 32  1  0
  4 15  4  0
  4 20  4  0
  4 23  4  0
  5 29  4  0
  5 33  4  0
  6  8  4  0
  6 10  4  0
  7 32  1  0
  9 34  1  0
 11 22  4  0
 11 30  4  0
 12 19  4  0
 13 17  1  0
 15 28  4  0
 18 25  1  0
 20 30  1  0
 20 33  4  0
 21 28  4  0
 22 29  4  0
 24 25  1  0
 27 29  1  0
M  END
$$$$

 Created by Python create_sdf_string function

 34 84  0  0  0  0  0  0  0  0999 V2000
   12.0942   -3.6104   22.3417 C   0  0  0  0  0  0  0  0  0  0  0  0
   10.2603   -7.6956   17.6858 O   0  0  0  0  0  0  0  0  0  0  0  0
   11.3978   -5.6129   19.5651 C   0  0  0  0  0  0  0  0  0  0  0  0
    3.0953   -9.7398   17.2013 C   0  0  0  0  0  0  0  0  0  0  0  0
   11.3076   -4.8025   21.2557 C   0  0  0  0  0  0  0  0  0  0  0  0
   10.2526   -3.4932   16.6546 N   0  0  0  0  0  0  0  0  0  0  0  0
    7.1606   -9.4558   15.9084 C   0  0  0  0  0  0  0  0  0  0  0  0
    0.5951  -10.6718   18.3348 C   0  0  0  0  0  0  0  0  0  0  0  0
   13.9708   -5.7371   21.8142 C   0  0  0  0  0  0  0  0  0  0  0  0
    7.8183   -6.9384   17.7371 Cl  0  0  0  0  0  0  0  0  0  0  0  0
   14.2061   -3.0269   23.9581 O   0  0  0  0  0  0  0  0  0  0  0  0
    7.0617   -6.8238   17.4905 C   0  0  0  0  0  0  0  0  0  0  0  0
    8.4448   -7.6485   16.5998 N   0  0  0  0  0  0  0  0  0  0  0  0
   14.0772   -5.2707   20.6139 N   0  0  0  0  0  0  0  0  0  0  0  0
    2.1725   -9.5744   19.1536 F   0  0  0  0  0  0  0  0  0  0  0  0
    0.6979  -11.5969   19.0755 C   0  0  0  0  0  0  0  0  0  0  0  0
    1.2973  -10.7410   16.1470 N   0  0  0  0  0  0  0  0  0  0  0  0
    9.9645   -5.7873   16.7426 N   0  0  0  0  0  0  0  0  0  0  0  0
   11.9085   -3.8249   23.4463 O   0  0  0  0  0  0  0  0  0  0  0  0
    0.3901  -13.1202   21.6097 F   0  0  0  0  0  0  0  0  0  0  0  0
    4.8665   -9.2679   17.3022 C   0  0  0  0  0  0  0  0  0  0  0  0
    1.4453  -10.7350   18.3674 C   0  0  0  0  0  0  0  0  0  0  0  0
    8.2210   -8.1458   17.6669 N   0  0  0  0  0  0  0  0  0  0  0  0
    2.9922  -11.5139   19.3286 C   0  0  0  0  0  0  0  0  0  0  0  0
    6.8230   -9.4373   16.8271 C   0  0  0  0  0  0  0  0  0  0  0  0
    2.4355  -12.1076   20.6160 He  0  0  0  0  0  0  0  0  0  0  0  0
   12.6087   -5.0298   20.4329 He  0  0  0  0  0  0  0  0  0  0  0  0
   10.8417   -4.0902   20.5905 He  0  0  0  0  0  0  0  0  0  0  0  0
    8.7114   -7.9214   18.1357 He  0  0  0  0  0  0  0  0  0  0  0  0
    3.6640   -9.4558   16.2975 He  0  0  0  0  0  0  0  0  0  0  0  0
    4.7820   -8.9832   18.2480 He  0  0  0  0  0  0  0  0  0  0  0  0
    9.1965   -4.8809   16.6636 He  0  0  0  0  0  0  0  0  0  0  0  0
    0.7841  -12.4910   20.3571 He  0  0  0  0  0  0  0  0  0  0  0  0
   10.3852   -5.3891   19.1249 He  0  0  0  0  0  0  0  0  0  0  0  0
  1  4  3  0
  1  5  2  0
  1  9  2  0
  1 12  4  0
  1 15  3  0
  1 16  2  0
  2  3  3  0
  2 24  3  0
  3  9  2  0
  3 14  3  0
  3 19  2  0
  3 21  2  0
  3 22  3  0
  4  5  4  0
  4  7  3  0
  4 10  4  0
  4 13  2  0
  4 14  2  0
  4 15  1  0
  4 17  4  0
  4 23  4  0
  5 10  3  0
  5 13  1  0
  5 15  1  0
  5 20  1  0
  5 23  3  0
  6  8  2  0
  6  9  4  0
  6 12  4  0
  6 15  1  0
  6 22  1  0
  6 25  3  0
  7  9  2  0
  7 10  2  0
  7 13  2  0
  7 17  4  0
  7 19  1  0
  7 21  4  0
  7 22  1  0
  7 23  1  0
  8  9  4  0
  8 10  1  0
  8 11  2  0
  8 22  4  0
  9 12  3  0
  9 16  4  0
 10 14  4  0
 10 15  2  0
 10 19  3  0
 10 22  1  0
 10 25  1  0
 11 21  1  0
 11 23  1  0
 11 24  2  0
 12 14  1  0
 12 17  4  0
 12 18  1  0
 12 19  2  0
 12 23  4  0
 12 24  3  0
 13 14  3  0
 13 17  3  0
 13 20  4  0
 13 22  3  0
 13 23  1  0
 13 25  4  0
 14 16  1  0
 14 18  3  0
 14 24  3  0
 15 16  4  0
 15 18  1  0
 15 24  4  0
 17 18  4  0
 17 21  3  0
 17 25  2  0
 18 19  3  0
 18 20  3  0
 18 23  2  0
 19 25  1  0
 20 21  1  0
 22 23  1  0
 22 25  3  0
 23 24  1  0
 23 25  1  0
M  END
$$$$

 Created by Python create_sdf_string function

 34 27  0  0  0  0  0  0  0  0999 V2000
   12.2795   -3.9927   22.1613 C   0  0  0  0  0  0  0  0  0  0  0  0
   10.1179   -7.6093   18.3771 O   0  0  0  0  0  0  0  0  0  0  0  0
   10.9592   -5.2365   19.1091 C   0  0  0  0  0  0  0  0  0  0  0  0
    2.8409   -9.6608   17.0452 C   0  0  0  0  0  0  0  0  0  0  0  0
    2.2601  -12.0479   20.2890 C   0  0  0  0  0  0  0  0  0  0  0  0
   11.3460   -4.4164   21.0121 C   0  0  0  0  0  0  0  0  0  0  0  0
   10.2187   -3.9300   16.9065 N   0  0  0  0  0  0  0  0  0  0  0  0
   12.6444   -5.1437   20.8444 C   0  0  0  0  0  0  0  0  0  0  0  0
    6.7526   -9.0334   16.0196 C   0  0  0  0  0  0  0  0  0  0  0  0
   11.1450   -4.1968   20.9096 C   0  0  0  0  0  0  0  0  0  0  0  0
    0.5769  -11.1624   18.3953 C   0  0  0  0  0  0  0  0  0  0  0  0
   13.5259   -5.1906   21.9501 C   0  0  0  0  0  0  0  0  0  0  0  0
    7.8996   -6.8365   17.5221 C   0  0  0  0  0  0  0  0  0  0  0  0
    9.1749   -7.4063   17.8799 C   0  0  0  0  0  0  0  0  0  0  0  0
    3.6789   -9.2893   16.4576 N   0  0  0  0  0  0  0  0  0  0  0  0
   13.6749   -3.5078   23.6390 O   0  0  0  0  0  0  0  0  0  0  0  0
    7.0116   -6.9798   17.6130 C   0  0  0  0  0  0  0  0  0  0  0  0
    8.3557   -8.0309   16.4725 C   0  0  0  0  0  0  0  0  0  0  0  0
   13.1476   -5.4971   20.7264 C   0  0  0  0  0  0  0  0  0  0  0  0
    2.9560  -10.5843   18.4024 C   0  0  0  0  0  0  0  0  0  0  0  0
    4.9548   -9.5725   18.1012 N   0  0  0  0  0  0  0  0  0  0  0  0
    0.3233  -11.8440   19.5551 C   0  0  0  0  0  0  0  0  0  0  0  0
    1.5472   -9.8170   16.7665 N   0  0  0  0  0  0  0  0  0  0  0  0
    9.6883   -4.7109   16.7619 C   0  0  0  0  0  0  0  0  0  0  0  0
    9.5620   -5.7395   17.3239 N   0  0  0  0  0  0  0  0  0  0  0  0
   12.5677   -3.6326   23.4022 O   0  0  0  0  0  0  0  0  0  0  0  0
    0.2520  -13.0693   21.7125 F   0  0  0  0  0  0  0  0  0  0  0  0
    4.7493   -9.3041   17.1320 C   0  0  0  0  0  0  0  0  0  0  0  0
    0.8539  -12.2718   20.4691 C   0  0  0  0  0  0  0  0  0  0  0  0
    1.3700  -10.7149   17.9467 C   0  0  0  0  0  0  0  0  0  0  0  0
    7.5609   -8.0741   16.9692 N   0  0  0  0  0  0  0  0  0  0  0  0
   10.6057   -5.1974   18.8424 C   0  0  0  0  0  0  0  0  0  0  0  0
    2.8814  -11.3470   19.2681 C   0  0  0  0  0  0  0  0  0  0  0  0
    6.1137   -8.8883   17.0196 C   0  0  0  0  0  0  0  0  0  0  0  0
  1 10  4  0
  2 14  2  0
  3 32  1  0
  4 15  4  0
  4 23  4  0
  5 29  4  0
  5 33  4  0
  6 10  4  0
  7 24  1  0
  8 19  4  0
  9 34  4  0
 11 22  4  0
 11 30  4  0
 12 19  4  0
 13 17  4  0
 15 28  4  0
 17 31  4  0
 18 31  1  0
 20 30  4  0
 20 33  4  0
 21 28  4  0
 21 34  4  0
 22 29  4  0
 23 30  4  0
 24 25  1  0
 27 29  1  0
 31 34  1  0
M  END
$$$$

 Created by Python create_sdf_string function

 34 84  0  0  0  0  0  0  0  0999 V2000
   12.1160   -4.5428   22.0516 N   0  0  0  0  0  0  0  0  0  0  0  0
   10.5931   -5.4963   19.4053 O   0  0  0  0  0  0  0  0  0  0  0  0
    3.0666   -9.4426   17.1949 C   0  0  0  0  0  0  0  0  0  0  0  0
    3.4243  -11.2988   20.7924 C   0  0  0  0  0  0  0  0  0  0  0  0
   11.7282   -4.6287   20.9085 C   0  0  0  0  0  0  0  0  0  0  0  0
   12.0488   -6.0327   22.0996 C   0  0  0  0  0  0  0  0  0  0  0  0
    6.1329   -8.6617   16.2500 C   0  0  0  0  0  0  0  0  0  0  0  0
   11.1369   -4.4479   20.4061 C   0  0  0  0  0  0  0  0  0  0  0  0
    0.3388  -11.2461   18.8488 C   0  0  0  0  0  0  0  0  0  0  0  0
    8.3842   -6.6619   17.9392 C   0  0  0  0  0  0  0  0  0  0  0  0
    3.1652  -10.6177   16.3779 C   0  0  0  0  0  0  0  0  0  0  0  0
    7.1366   -7.0807   16.7585 C   0  0  0  0  0  0  0  0  0  0  0  0
    8.9738   -7.4911   17.1067 O   0  0  0  0  0  0  0  0  0  0  0  0
    4.5878   -9.1940   18.5265 I   0  0  0  0  0  0  0  0  0  0  0  0
    0.4177  -11.6529   19.5410 C   0  0  0  0  0  0  0  0  0  0  0  0
    2.5647  -10.8128   16.2740 C   0  0  0  0  0  0  0  0  0  0  0  0
    9.8706   -4.3594   16.2011 C   0  0  0  0  0  0  0  0  0  0  0  0
    9.3987   -5.2272   16.4791 N   0  0  0  0  0  0  0  0  0  0  0  0
   12.6157   -3.9807   23.4590 S   0  0  0  0  0  0  0  0  0  0  0  0
    0.0014  -12.8940   21.5421 F   0  0  0  0  0  0  0  0  0  0  0  0
    4.7911   -9.5444   17.2110 C   0  0  0  0  0  0  0  0  0  0  0  0
    0.5889  -12.4012   20.5526 C   0  0  0  0  0  0  0  0  0  0  0  0
    1.4651  -10.5639   18.4308 C   0  0  0  0  0  0  0  0  0  0  0  0
   10.6456   -5.3092   19.1860 C   0  0  0  0  0  0  0  0  0  0  0  0
    3.2100  -11.0645   18.7800 C   0  0  0  0  0  0  0  0  0  0  0  0
    6.8209  -10.2151   17.4872 F   0  0  0  0  0  0  0  0  0  0  0  0
    9.5540   -8.5715   19.5457 He  0  0  0  0  0  0  0  0  0  0  0  0
   12.0089   -4.5285   16.1666 He  0  0  0  0  0  0  0  0  0  0  0  0
   12.6982   -5.3997   23.5339 He  0  0  0  0  0  0  0  0  0  0  0  0
   11.0565   -8.0070   17.0676 He  0  0  0  0  0  0  0  0  0  0  0  0
   14.0229   -4.5380   23.6319 He  0  0  0  0  0  0  0  0  0  0  0  0
   13.6354   -5.0738   20.2545 He  0  0  0  0  0  0  0  0  0  0  0  0
    2.0715   -9.4671   20.0863 He  0  0  0  0  0  0  0  0  0  0  0  0
    7.7877   -7.5224   15.1778 He  0  0  0  0  0  0  0  0  0  0  0  0
  1  4  2  0
  1  6  4  0
  1  8  4  0
  1 10  3  0
  1 11  3  0
  1 16  3  0
  1 17  2  0
  2  4  1  0
  2  7  4  0
  2 10  3  0
  2 17  2  0
  2 24  1  0
  3  4  3  0
  3  6  4  0
  3 10  2  0
  3 11  4  0
  3 12  4  0
  3 18  3  0
  4 13  2  0
  4 20  2  0
  4 21  3  0
  4 22  2  0
  4 25  4  0
  5  8  1  0
  5 18  4  0
  5 26  2  0
  6 11  2  0
  6 12  1  0
  6 21  2  0
  6 22  4  0
  7 11  1  0
  7 13  4  0
  7 14  3  0
  7 18  1  0
  7 20  2  0
  7 25  4  0
  7 26  1  0
  8  9  3  0
  8 14  2  0
  8 17  3  0
  8 18  1  0
  8 19  4  0
  8 23  3  0
  8 26  1  0
  9 10  1  0
  9 12  3  0
  9 15  4  0
  9 23  4  0
  9 26  3  0
 10 11  4  0
 10 22  4  0
 11 15  4  0
 11 20  1  0
 11 21  4  0
 11 22  1  0
 11 24  1  0
 11 25  4  0
 12 17  1  0
 12 24  1  0
 12 25  2  0
 13 16  2  0
 13 20  4  0
 13 22  2  0
 13 23  1  0
 14 16  3  0
 14 20  4  0
 14 21  4  0
 14 22  4  0
 14 24  2  0
 14 25  2  0
 15 18  2  0
 15 22  1  0
 16 21  1  0
 16 22  3  0
 16 23  1  0
 17 18  1  0
 17 23  1  0
 17 24  4  0
 18 24  1  0
 20 22  1  0
 20 24  4  0
 20 26  3  0
 23 26  3  0
 24 26  2  0
M  END
$$$$

 Created by Python create_sdf_string function

 34 33  0  0  0  0  0  0  0  0999 V2000
   11.6474   -4.2664   22.0983 C   0  0  0  0  0  0  0  0  0  0  0  0
    9.5008   -7.8879   18.5107 C   0  0  0  0  0  0  0  0  0  0  0  0
   10.9157   -5.1255   19.2304 C   0  0  0  0  0  0  0  0  0  0  0  0
    2.7329   -9.4163   16.6926 C   0  0  0  0  0  0  0  0  0  0  0  0
    2.1327  -11.9731   20.2415 C   0  0  0  0  0  0  0  0  0  0  0  0
   11.5713   -4.8478   20.2780 C   0  0  0  0  0  0  0  0  0  0  0  0
   11.1521   -4.1623   16.7664 C   0  0  0  0  0  0  0  0  0  0  0  0
   12.6219   -5.0871   21.6036 C   0  0  0  0  0  0  0  0  0  0  0  0
    6.6550   -8.5779   16.1991 C   0  0  0  0  0  0  0  0  0  0  0  0
   10.8043   -4.1016   20.9814 C   0  0  0  0  0  0  0  0  0  0  0  0
    0.2821  -11.1486   18.6921 C   0  0  0  0  0  0  0  0  0  0  0  0
   12.6490   -5.1027   23.9759 O   0  0  0  0  0  0  0  0  0  0  0  0
    8.1705   -6.5067   17.3798 C   0  0  0  0  0  0  0  0  0  0  0  0
   10.1585   -7.4504   18.0768 C   0  0  0  0  0  0  0  0  0  0  0  0
    3.6785   -9.6598   16.9230 C   0  0  0  0  0  0  0  0  0  0  0  0
   13.8313   -4.5133   23.4344 O   0  0  0  0  0  0  0  0  0  0  0  0
    7.6833   -6.7063   16.6375 C   0  0  0  0  0  0  0  0  0  0  0  0
    8.7064   -7.8836   17.2442 C   0  0  0  0  0  0  0  0  0  0  0  0
   12.7593   -5.3093   20.6618 C   0  0  0  0  0  0  0  0  0  0  0  0
    2.3937  -11.2045   18.9930 C   0  0  0  0  0  0  0  0  0  0  0  0
    5.0247   -9.8466   18.2069 N   0  0  0  0  0  0  0  0  0  0  0  0
   -0.0294  -11.7177   19.6806 C   0  0  0  0  0  0  0  0  0  0  0  0
    1.8625   -9.8339   17.0778 C   0  0  0  0  0  0  0  0  0  0  0  0
    9.9604   -4.4451   16.5122 C   0  0  0  0  0  0  0  0  0  0  0  0
    9.6350   -5.3391   17.0834 N   0  0  0  0  0  0  0  0  0  0  0  0
   12.7122   -4.4071   23.4087 C   0  0  0  0  0  0  0  0  0  0  0  0
    0.2299  -12.9816   21.6495 F   0  0  0  0  0  0  0  0  0  0  0  0
    4.8943   -9.5658   17.3386 C   0  0  0  0  0  0  0  0  0  0  0  0
    0.7965  -12.2383   20.6018 C   0  0  0  0  0  0  0  0  0  0  0  0
    1.4829  -10.8501   18.3287 C   0  0  0  0  0  0  0  0  0  0  0  0
    7.6324   -7.6358   15.8436 C   0  0  0  0  0  0  0  0  0  0  0  0
   10.1712   -5.2903   18.6436 C   0  0  0  0  0  0  0  0  0  0  0  0
    3.8228  -10.6380   18.3456 C   0  0  0  0  0  0  0  0  0  0  0  0
    6.2468   -9.2394   16.9427 N   0  0  0  0  0  0  0  0  0  0  0  0
  1  8  4  0
  1 10  4  0
  2 14  1  0
  3  6  1  0
  3 32  1  0
  4 15  4  0
  4 23  4  0
  5 20  4  0
  5 29  4  0
  6 10  4  0
  6 19  4  0
  7 24  1  0
  8 19  4  0
  9 31  1  0
  9 34  1  0
 11 22  4  0
 11 30  4  0
 12 26  2  0
 13 17  4  0
 15 28  4  0
 15 33  4  0
 16 26  2  0
 17 31  4  0
 20 30  4  0
 20 33  4  0
 21 28  4  0
 21 33  4  0
 22 29  4  0
 23 30  4  0
 24 25  1  0
 25 32  1  0
 27 29  1  0
 28 34  1  0
M  END
$$$$

 Created by Python create_sdf_string function

 34 76  0  0  0  0  0  0  0  0999 V2000
   11.8658   -4.7125   22.2915 O   0  0  0  0  0  0  0  0  0  0  0  0
   10.6656   -4.5920   19.0541 O   0  0  0  0  0  0  0  0  0  0  0  0
    2.7196   -9.4353   16.6614 C   0  0  0  0  0  0  0  0  0  0  0  0
   11.8410   -6.9141   19.9274 N   0  0  0  0  0  0  0  0  0  0  0  0
   10.3838   -5.2297   21.3182 O   0  0  0  0  0  0  0  0  0  0  0  0
    0.1792  -11.2837   18.7046 C   0  0  0  0  0  0  0  0  0  0  0  0
   13.6363   -4.4520   24.2280 O   0  0  0  0  0  0  0  0  0  0  0  0
    7.4984   -6.1056   16.4557 S   0  0  0  0  0  0  0  0  0  0  0  0
    9.1199   -6.4618   18.5406 N   0  0  0  0  0  0  0  0  0  0  0  0
    4.0574   -9.5007   15.0808 C   0  0  0  0  0  0  0  0  0  0  0  0
   13.9769   -4.7947   23.6421 O   0  0  0  0  0  0  0  0  0  0  0  0
    1.0830  -11.4320   18.0805 P   0  0  0  0  0  0  0  0  0  0  0  0
    2.8012   -9.6640   16.6498 C   0  0  0  0  0  0  0  0  0  0  0  0
    9.9340   -4.6083   16.4147 N   0  0  0  0  0  0  0  0  0  0  0  0
   13.1220   -4.2163   23.6001 C   0  0  0  0  0  0  0  0  0  0  0  0
    0.4115  -13.0606   21.6970 F   0  0  0  0  0  0  0  0  0  0  0  0
    4.6917   -9.6324   17.1346 C   0  0  0  0  0  0  0  0  0  0  0  0
    0.0019  -12.1707   20.0425 F   0  0  0  0  0  0  0  0  0  0  0  0
    1.7204  -11.0932   18.3054 C   0  0  0  0  0  0  0  0  0  0  0  0
    7.7831   -7.3807   16.0688 F   0  0  0  0  0  0  0  0  0  0  0  0
   10.1381   -5.3606   18.9012 C   0  0  0  0  0  0  0  0  0  0  0  0
    3.5864  -10.4090   18.0326 N   0  0  0  0  0  0  0  0  0  0  0  0
    6.0612   -9.4063   17.1314 O   0  0  0  0  0  0  0  0  0  0  0  0
    8.3324   -7.4710   17.2919 He  0  0  0  0  0  0  0  0  0  0  0  0
    2.2150  -11.9268   19.4048 He  0  0  0  0  0  0  0  0  0  0  0  0
   11.7186   -4.6490   20.0500 He  0  0  0  0  0  0  0  0  0  0  0  0
   11.9477   -6.0022   15.8263 He  0  0  0  0  0  0  0  0  0  0  0  0
    5.7660   -8.2381   16.2539 He  0  0  0  0  0  0  0  0  0  0  0  0
    6.7090   -6.4854   17.0129 He  0  0  0  0  0  0  0  0  0  0  0  0
    9.0575   -9.4464   17.7472 He  0  0  0  0  0  0  0  0  0  0  0  0
   11.9885   -4.9124   20.1221 He  0  0  0  0  0  0  0  0  0  0  0  0
    6.0951  -10.2245   18.5113 He  0  0  0  0  0  0  0  0  0  0  0  0
    0.0761  -11.5116   20.0250 He  0  0  0  0  0  0  0  0  0  0  0  0
    9.5442   -4.7628   16.8230 He  0  0  0  0  0  0  0  0  0  0  0  0
  1  4  2  0
  1  5  4  0
  1  7  2  0
  1 12  4  0
  1 13  1  0
  1 18  3  0
  1 22  1  0
  2  3  3  0
  2  4  2  0
  2  5  2  0
  2  6  4  0
  2 16  3  0
  2 22  3  0
  3  5  2  0
  3  8  1  0
  3 10  3  0
  3 11  2  0
  3 12  2  0
  3 20  1  0
  4  5  2  0
  4  8  1  0
  4 11  1  0
  4 12  3  0
  4 18  2  0
  4 20  2  0
  4 22  3  0
  4 23  4  0
  5  6  3  0
  5  8  2  0
  5 12  2  0
  5 13  2  0
  5 18  4  0
  5 22  4  0
  6  8  1  0
  6 10  3  0
  6 12  2  0
  6 18  4  0
  6 19  4  0
  6 20  3  0
  6 21  1  0
  7  9  1  0
  7 10  3  0
  7 13  2  0
  7 15  2  0
  7 19  2  0
  8 13  2  0
  8 17  4  0
  8 21  3  0
  9 10  4  0
  9 12  2  0
  9 17  1  0
  9 21  1  0
 10 13  1  0
 10 17  4  0
 10 18  1  0
 10 19  2  0
 11 12  1  0
 11 15  1  0
 11 17  1  0
 11 18  4  0
 11 20  1  0
 11 22  2  0
 12 14  4  0
 12 15  2  0
 12 16  3  0
 12 17  1  0
 12 19  2  0
 12 20  1  0
 12 22  4  0
 13 16  1  0
 13 19  4  0
 16 18  4  0
 16 20  2  0
 17 23  3  0
 20 23  4  0
 21 23  3  0
M  END
$$$$

 Created by Python create_sdf_string function

 34 30  0  0  0  0  0  0  0  0999 V2000
   11.9492   -4.7360   22.0314 C   0  0  0  0  0  0  0  0  0  0  0  0
    8.5970   -7.0624   17.4729 C   0  0  0  0  0  0  0  0  0  0  0  0
   11.0197   -4.5149   19.1558 C   0  0  0  0  0  0  0  0  0  0  0  0
    2.5965   -9.3890   16.3754 C   0  0  0  0  0  0  0  0  0  0  0  0
    2.1697  -11.9014   19.9632 C   0  0  0  0  0  0  0  0  0  0  0  0
   11.9461   -4.5754   20.2211 C   0  0  0  0  0  0  0  0  0  0  0  0
   11.1187   -4.3441   16.6599 C   0  0  0  0  0  0  0  0  0  0  0  0
   11.0635   -5.7531   19.9493 C   0  0  0  0  0  0  0  0  0  0  0  0
    6.3714   -8.0383   16.4504 C   0  0  0  0  0  0  0  0  0  0  0  0
   11.1180   -4.8665   21.2665 C   0  0  0  0  0  0  0  0  0  0  0  0
    0.0717  -11.1439   18.6519 C   0  0  0  0  0  0  0  0  0  0  0  0
   13.1056   -4.2884   24.1653 O   0  0  0  0  0  0  0  0  0  0  0  0
    7.8949   -5.8200   16.1867 C   0  0  0  0  0  0  0  0  0  0  0  0
    9.3524   -6.4010   18.1244 N   0  0  0  0  0  0  0  0  0  0  0  0
    3.9364   -8.9377   15.9821 C   0  0  0  0  0  0  0  0  0  0  0  0
   13.9699   -4.7610   23.1535 O   0  0  0  0  0  0  0  0  0  0  0  0
    6.8562   -6.8380   17.0913 C   0  0  0  0  0  0  0  0  0  0  0  0
    8.6854   -8.2781   17.5504 C   0  0  0  0  0  0  0  0  0  0  0  0
   12.1873   -4.6410   20.8409 C   0  0  0  0  0  0  0  0  0  0  0  0
    1.9881  -11.1582   18.8740 C   0  0  0  0  0  0  0  0  0  0  0  0
    5.2121   -9.7665   18.0836 C   0  0  0  0  0  0  0  0  0  0  0  0
   -0.1953  -11.7903   19.8590 C   0  0  0  0  0  0  0  0  0  0  0  0
    2.3911   -9.9388   17.1782 C   0  0  0  0  0  0  0  0  0  0  0  0
    9.9070   -4.4080   16.5191 C   0  0  0  0  0  0  0  0  0  0  0  0
    9.5637   -4.7194   16.7657 C   0  0  0  0  0  0  0  0  0  0  0  0
   13.2172   -4.5681   23.2534 C   0  0  0  0  0  0  0  0  0  0  0  0
    1.0689  -12.5128   21.0249 C   0  0  0  0  0  0  0  0  0  0  0  0
    4.7789   -9.3222   16.9374 C   0  0  0  0  0  0  0  0  0  0  0  0
   -0.0520  -12.0981   20.3746 C   0  0  0  0  0  0  0  0  0  0  0  0
    1.4810  -10.7778   18.2145 C   0  0  0  0  0  0  0  0  0  0  0  0
    7.5722   -7.7463   16.1059 C   0  0  0  0  0  0  0  0  0  0  0  0
   10.2405   -5.4967   18.6900 C   0  0  0  0  0  0  0  0  0  0  0  0
    3.6754  -10.5215   18.4015 N   0  0  0  0  0  0  0  0  0  0  0  0
    6.2107   -9.0925   16.8484 O   0  0  0  0  0  0  0  0  0  0  0  0
  1 10  4  0
  1 19  4  0
  1 26  1  0
  2 14  1  0
  2 18  1  0
  3 32  4  0
  4 15  4  0
  4 23  4  0
  5 20  4  0
  5 27  4  0
  6 19  4  0
  7 24  1  0
  8 32  4  0
  9 17  1  0
  9 31  1  0
  9 34  1  0
 11 22  4  0
 11 30  4  0
 12 26  2  0
 14 32  1  0
 15 28  4  0
 16 26  1  0
 20 30  4  0
 21 28  4  0
 21 33  4  0
 22 29  4  0
 23 30  4  0
 24 25  1  0
 27 29  4  0
 28 34  1  0
M  END
$$$$

 Created by Python create_sdf_string function

 34 62  0  0  0  0  0  0  0  0999 V2000
   12.2279   -4.5063   22.0813 C   0  0  0  0  0  0  0  0  0  0  0  0
   10.8985   -4.9708   19.1478 C   0  0  0  0  0  0  0  0  0  0  0  0
    2.1874   -9.1825   16.5492 C   0  0  0  0  0  0  0  0  0  0  0  0
    2.4350  -12.8872   20.5886 C   0  0  0  0  0  0  0  0  0  0  0  0
   11.4403   -4.5003   20.4172 C   0  0  0  0  0  0  0  0  0  0  0  0
   10.6312   -4.4365   17.4100 O   0  0  0  0  0  0  0  0  0  0  0  0
   11.0440   -5.7686   20.1935 C   0  0  0  0  0  0  0  0  0  0  0  0
    6.9165   -8.3148   15.9916 C   0  0  0  0  0  0  0  0  0  0  0  0
   12.0989   -5.1074   20.4182 C   0  0  0  0  0  0  0  0  0  0  0  0
    0.4514  -11.0125   18.7701 C   0  0  0  0  0  0  0  0  0  0  0  0
   13.4553   -3.6952   24.8123 O   0  0  0  0  0  0  0  0  0  0  0  0
   15.1547   -4.7301   21.7896 O   0  0  0  0  0  0  0  0  0  0  0  0
    6.0477   -6.6897   15.4276 C   0  0  0  0  0  0  0  0  0  0  0  0
    9.6008   -7.6085   18.4831 C   0  0  0  0  0  0  0  0  0  0  0  0
    4.8240   -9.6350   18.2592 C   0  0  0  0  0  0  0  0  0  0  0  0
   -0.0676  -12.3436   19.6203 C   0  0  0  0  0  0  0  0  0  0  0  0
   10.2957   -4.1608   16.3887 C   0  0  0  0  0  0  0  0  0  0  0  0
   13.0531   -4.3360   22.9942 C   0  0  0  0  0  0  0  0  0  0  0  0
    0.4625  -12.5008   21.0435 C   0  0  0  0  0  0  0  0  0  0  0  0
    4.4450   -9.5126   16.6674 C   0  0  0  0  0  0  0  0  0  0  0  0
    1.3981  -10.6278   18.0332 C   0  0  0  0  0  0  0  0  0  0  0  0
    6.8454   -7.5969   16.6253 F   0  0  0  0  0  0  0  0  0  0  0  0
   10.1430   -5.4160   18.4720 C   0  0  0  0  0  0  0  0  0  0  0  0
    3.5275  -10.6058   18.2164 N   0  0  0  0  0  0  0  0  0  0  0  0
    8.5012   -6.8603   17.1925 He  0  0  0  0  0  0  0  0  0  0  0  0
    7.1979   -5.3808   16.2561 He  0  0  0  0  0  0  0  0  0  0  0  0
   10.6887   -7.7462   17.7942 He  0  0  0  0  0  0  0  0  0  0  0  0
    3.1356   -8.3879   16.1767 He  0  0  0  0  0  0  0  0  0  0  0  0
   11.6484   -4.1099   21.6237 He  0  0  0  0  0  0  0  0  0  0  0  0
    2.1763  -12.1281   20.2963 He  0  0  0  0  0  0  0  0  0  0  0  0
    1.9573   -9.5471   16.1524 He  0  0  0  0  0  0  0  0  0  0  0  0
    8.9793   -4.6486   16.6347 He  0  0  0  0  0  0  0  0  0  0  0  0
    0.7909  -11.6958   20.9766 He  0  0  0  0  0  0  0  0  0  0  0  0
    6.1597   -9.1729   16.5742 He  0  0  0  0  0  0  0  0  0  0  0  0
  1 12  1  0
  2  4  2  0
  2  5  2  0
  2 13  1  0
  2 14  3  0
  2 21  3  0
  2 24  3  0
  3 16  1  0
  4  7  1  0
  4 22  2  0
  4 23  1  0
  5  7  4  0
  5 13  1  0
  5 18  4  0
  6  7  1  0
  6  9  4  0
  6 13  2  0
  6 14  2  0
  6 15  4  0
  6 17  3  0
  6 21  3  0
  6 22  1  0
  6 24  4  0
  7  9  4  0
  7 11  2  0
  7 13  4  0
  7 17  4  0
  7 22  2  0
  7 23  4  0
  8  9  4  0
  8 12  2  0
  8 13  1  0
  8 16  4  0
  8 17  3  0
  8 22  1  0
  9 11  1  0
  9 16  4  0
 10 15  1  0
 10 16  4  0
 10 18  1  0
 10 22  3  0
 11 15  2  0
 11 18  2  0
 11 20  4  0
 11 24  4  0
 13 14  3  0
 13 16  2  0
 13 18  3  0
 13 19  1  0
 13 23  1  0
 14 16  1  0
 14 21  4  0
 14 22  1  0
 15 17  3  0
 15 20  4  0
 16 21  4  0
 16 24  3  0
 18 22  2  0
 19 21  1  0
 19 22  3  0
 20 24  1  0
 23 24  2  0
M  END
$$$$

 Created by Python create_sdf_string function

 34 31  0  0  0  0  0  0  0  0999 V2000
   12.3744   -4.3832   22.0600 C   0  0  0  0  0  0  0  0  0  0  0  0
    8.5105   -6.8514   17.1582 C   0  0  0  0  0  0  0  0  0  0  0  0
   10.8763   -4.8051   19.4194 C   0  0  0  0  0  0  0  0  0  0  0  0
    2.3425   -9.2341   16.5339 C   0  0  0  0  0  0  0  0  0  0  0  0
    2.1703  -12.3053   20.4229 C   0  0  0  0  0  0  0  0  0  0  0  0
   10.7535   -4.0504   20.5525 C   0  0  0  0  0  0  0  0  0  0  0  0
   10.5157   -4.0271   17.2448 O   0  0  0  0  0  0  0  0  0  0  0  0
   11.8474   -5.5854   19.9513 C   0  0  0  0  0  0  0  0  0  0  0  0
    6.5246   -8.1109   16.4790 C   0  0  0  0  0  0  0  0  0  0  0  0
   12.4114   -5.3069   20.6435 C   0  0  0  0  0  0  0  0  0  0  0  0
    0.8996  -11.3556   18.9115 C   0  0  0  0  0  0  0  0  0  0  0  0
   13.2156   -3.9263   23.9799 O   0  0  0  0  0  0  0  0  0  0  0  0
    7.6028   -6.0733   15.9879 C   0  0  0  0  0  0  0  0  0  0  0  0
    9.6092   -6.6468   17.9719 C   0  0  0  0  0  0  0  0  0  0  0  0
    3.4198   -8.7245   16.2427 N   0  0  0  0  0  0  0  0  0  0  0  0
   14.2132   -4.8068   22.8823 O   0  0  0  0  0  0  0  0  0  0  0  0
    6.4657   -6.8675   15.6777 C   0  0  0  0  0  0  0  0  0  0  0  0
    8.9285   -7.6150   18.0208 C   0  0  0  0  0  0  0  0  0  0  0  0
   11.3855   -3.8842   21.6558 C   0  0  0  0  0  0  0  0  0  0  0  0
    2.1883  -12.0305   19.9330 C   0  0  0  0  0  0  0  0  0  0  0  0
    4.9061   -9.6341   17.6868 C   0  0  0  0  0  0  0  0  0  0  0  0
    0.0308  -11.6130   19.5345 C   0  0  0  0  0  0  0  0  0  0  0  0
    1.8278   -9.8113   17.0736 N   0  0  0  0  0  0  0  0  0  0  0  0
    9.8265   -4.2515   16.4068 C   0  0  0  0  0  0  0  0  0  0  0  0
    9.4042   -4.9379   16.6842 C   0  0  0  0  0  0  0  0  0  0  0  0
   13.2061   -4.2815   23.1002 C   0  0  0  0  0  0  0  0  0  0  0  0
    0.3815  -12.1579   21.3971 C   0  0  0  0  0  0  0  0  0  0  0  0
    4.3390   -9.5265   17.3198 C   0  0  0  0  0  0  0  0  0  0  0  0
    0.3912  -12.2343   21.0973 C   0  0  0  0  0  0  0  0  0  0  0  0
    1.3517  -10.7048   17.9332 C   0  0  0  0  0  0  0  0  0  0  0  0
    7.5806   -8.1929   17.1856 C   0  0  0  0  0  0  0  0  0  0  0  0
   10.6666   -5.5427   18.8286 C   0  0  0  0  0  0  0  0  0  0  0  0
    3.8046  -10.3627   18.1684 N   0  0  0  0  0  0  0  0  0  0  0  0
    5.9013   -8.9368   16.7396 C   0  0  0  0  0  0  0  0  0  0  0  0
  1 10  4  0
  1 19  4  0
  1 26  1  0
  2 13  1  0
  2 14  1  0
  2 31  1  0
  3  6  4  0
  3 32  4  0
  4 15  4  0
  4 23  4  0
  5 20  4  0
  6 19  4  0
  8 10  4  0
  8 32  4  0
  9 17  1  0
  9 31  1  0
  9 34  1  0
 11 22  4  0
 11 30  1  0
 12 26  2  0
 13 17  1  0
 14 32  1  0
 15 28  4  0
 16 26  1  0
 18 31  1  0
 21 28  4  0
 21 33  4  0
 23 30  4  0
 24 25  1  0
 27 29  4  0
 28 33  4  0
M  END
$$$$

 Created by Python create_sdf_string function

 34 98  0  0  0  0  0  0  0  0999 V2000
   12.5741   -4.5716   21.9286 C   0  0  0  0  0  0  0  0  0  0  0  0
    9.6183   -6.9029   17.1706 P   0  0  0  0  0  0  0  0  0  0  0  0
   10.6778   -5.6976   19.0048 C   0  0  0  0  0  0  0  0  0  0  0  0
    2.4996   -9.1490   16.5654 C   0  0  0  0  0  0  0  0  0  0  0  0
   10.6352   -3.7089   20.7346 C   0  0  0  0  0  0  0  0  0  0  0  0
    9.8876   -4.2540   17.5901 S   0  0  0  0  0  0  0  0  0  0  0  0
   12.3433   -5.1386   20.0408 Cl  0  0  0  0  0  0  0  0  0  0  0  0
   13.9510   -4.4018   23.6332 O   0  0  0  0  0  0  0  0  0  0  0  0
    6.9026   -6.5659   15.8775 C   0  0  0  0  0  0  0  0  0  0  0  0
    9.7800   -5.9723   17.4613 C   0  0  0  0  0  0  0  0  0  0  0  0
    4.1321   -8.9632   15.1105 N   0  0  0  0  0  0  0  0  0  0  0  0
   13.2067   -4.7593   22.8775 O   0  0  0  0  0  0  0  0  0  0  0  0
    6.3074   -6.5924   15.6248 C   0  0  0  0  0  0  0  0  0  0  0  0
    8.5390   -7.8726   18.9570 F   0  0  0  0  0  0  0  0  0  0  0  0
   11.5230   -3.6345   21.6169 C   0  0  0  0  0  0  0  0  0  0  0  0
    2.5108  -11.7031   19.7315 N   0  0  0  0  0  0  0  0  0  0  0  0
    2.2156   -9.4047   16.8489 N   0  0  0  0  0  0  0  0  0  0  0  0
    9.9373   -4.1451   16.1954 C   0  0  0  0  0  0  0  0  0  0  0  0
    9.0398   -4.7533   17.1841 N   0  0  0  0  0  0  0  0  0  0  0  0
    0.4185  -12.1019   21.7009 C   0  0  0  0  0  0  0  0  0  0  0  0
    4.3809   -9.7288   17.2326 C   0  0  0  0  0  0  0  0  0  0  0  0
    0.2626  -12.2539   20.1208 C   0  0  0  0  0  0  0  0  0  0  0  0
    1.3207  -10.8648   17.8486 C   0  0  0  0  0  0  0  0  0  0  0  0
    8.4207   -7.7279   15.2532 Br  0  0  0  0  0  0  0  0  0  0  0  0
   10.8752   -5.2457   19.0353 C   0  0  0  0  0  0  0  0  0  0  0  0
    3.5561  -10.3700   18.5491 N   0  0  0  0  0  0  0  0  0  0  0  0
    5.9512   -8.9827   17.0395 C   0  0  0  0  0  0  0  0  0  0  0  0
    2.1047  -11.7864   20.6380 He  0  0  0  0  0  0  0  0  0  0  0  0
    5.1192   -9.1857   16.7588 He  0  0  0  0  0  0  0  0  0  0  0  0
   12.0733   -6.0852   19.3669 He  0  0  0  0  0  0  0  0  0  0  0  0
    1.1749  -11.4625   18.9696 He  0  0  0  0  0  0  0  0  0  0  0  0
    3.9378   -8.9006   17.3684 He  0  0  0  0  0  0  0  0  0  0  0  0
   -0.1697  -11.4318   19.7477 He  0  0  0  0  0  0  0  0  0  0  0  0
   13.6504   -4.7585   23.5119 He  0  0  0  0  0  0  0  0  0  0  0  0
  1  3  2  0
  1  6  1  0
  1  8  4  0
  1 15  4  0
  1 17  1  0
  1 22  4  0
  1 27  3  0
  2  4  3  0
  2  5  2  0
  2  8  3  0
  2  9  4  0
  2 10  1  0
  2 12  1  0
  2 14  1  0
  2 15  1  0
  2 16  4  0
  2 18  3  0
  2 21  1  0
  2 22  1  0
  3  4  3  0
  3  5  2  0
  3  7  2  0
  3  9  3  0
  3 17  1  0
  3 20  2  0
  4  9  2  0
  4 10  3  0
  4 11  4  0
  4 12  3  0
  4 13  2  0
  4 14  4  0
  4 15  3  0
  5  8  4  0
  5 10  2  0
  5 11  3  0
  5 13  2  0
  6  7  2  0
  6 20  1  0
  6 23  3  0
  7 11  2  0
  7 13  3  0
  7 15  2  0
  7 16  2  0
  7 18  4  0
  7 24  4  0
  7 25  4  0
  8  9  3  0
  8 11  4  0
  8 14  4  0
  8 20  3  0
  8 25  2  0
  9 10  4  0
  9 13  4  0
  9 17  3  0
  9 20  4  0
  9 21  1  0
  9 22  4  0
  9 26  2  0
 10 12  2  0
 10 13  4  0
 10 21  2  0
 10 24  4  0
 10 26  2  0
 11 13  3  0
 11 16  3  0
 11 19  3  0
 11 21  4  0
 11 22  2  0
 11 25  4  0
 11 26  4  0
 12 16  3  0
 12 21  3  0
 12 26  2  0
 13 16  3  0
 13 18  2  0
 13 23  4  0
 14 18  2  0
 14 20  4  0
 14 22  1  0
 14 24  1  0
 14 27  2  0
 15 20  2  0
 15 23  1  0
 15 24  1  0
 15 27  3  0
 16 20  3  0
 16 24  3  0
 17 21  4  0
 17 22  4  0
 17 25  1  0
 17 26  1  0
 18 19  3  0
 18 22  2  0
 18 26  2  0
 20 26  2  0
 21 26  4  0
 22 26  1  0
 23 24  3  0
M  END
$$$$

 Created by Python create_sdf_string function

 34 28  0  0  0  0  0  0  0  0999 V2000
   12.5746   -4.7172   21.8881 C   0  0  0  0  0  0  0  0  0  0  0  0
    8.9315   -6.8889   17.3503 C   0  0  0  0  0  0  0  0  0  0  0  0
   10.8402   -5.1398   19.2697 C   0  0  0  0  0  0  0  0  0  0  0  0
    2.7119   -9.1614   16.1742 C   0  0  0  0  0  0  0  0  0  0  0  0
    1.8555  -12.0864   21.0104 C   0  0  0  0  0  0  0  0  0  0  0  0
   10.6816   -4.0760   20.6833 C   0  0  0  0  0  0  0  0  0  0  0  0
   10.3526   -4.1434   17.2451 N   0  0  0  0  0  0  0  0  0  0  0  0
   12.6510   -5.4185   20.5818 C   0  0  0  0  0  0  0  0  0  0  0  0
    5.7739   -8.5675   16.6982 C   0  0  0  0  0  0  0  0  0  0  0  0
   11.8648   -5.6374   19.4975 C   0  0  0  0  0  0  0  0  0  0  0  0
    1.2672  -11.2488   19.0091 C   0  0  0  0  0  0  0  0  0  0  0  0
   14.0016   -4.0549   23.2624 O   0  0  0  0  0  0  0  0  0  0  0  0
    7.2423   -6.6803   16.2389 C   0  0  0  0  0  0  0  0  0  0  0  0
    9.2353   -6.1185   17.2898 C   0  0  0  0  0  0  0  0  0  0  0  0
    3.8957   -8.6698   15.8930 N   0  0  0  0  0  0  0  0  0  0  0  0
   13.5363   -5.2285   23.2126 O   0  0  0  0  0  0  0  0  0  0  0  0
    6.7731   -6.9519   15.8850 C   0  0  0  0  0  0  0  0  0  0  0  0
    8.6702   -7.9256   17.9254 C   0  0  0  0  0  0  0  0  0  0  0  0
   11.5314   -4.0454   21.6812 C   0  0  0  0  0  0  0  0  0  0  0  0
    2.3284  -11.7574   20.0032 N   0  0  0  0  0  0  0  0  0  0  0  0
    4.6583   -9.3357   17.3241 C   0  0  0  0  0  0  0  0  0  0  0  0
    0.0598  -11.5498   19.3821 C   0  0  0  0  0  0  0  0  0  0  0  0
    1.9469   -9.7345   16.9329 N   0  0  0  0  0  0  0  0  0  0  0  0
    9.7296   -4.1268   16.4351 C   0  0  0  0  0  0  0  0  0  0  0  0
    9.2196   -4.7105   16.5718 N   0  0  0  0  0  0  0  0  0  0  0  0
   13.3846   -4.6861   22.9451 C   0  0  0  0  0  0  0  0  0  0  0  0
    0.6429  -12.2680   21.6608 C   0  0  0  0  0  0  0  0  0  0  0  0
    4.2118   -9.6842   17.5002 C   0  0  0  0  0  0  0  0  0  0  0  0
   -0.1285  -11.9685   20.5695 C   0  0  0  0  0  0  0  0  0  0  0  0
    1.8100  -10.5972   18.0620 C   0  0  0  0  0  0  0  0  0  0  0  0
    8.1930   -8.1486   16.0720 C   0  0  0  0  0  0  0  0  0  0  0  0
   10.6572   -5.5038   18.7485 C   0  0  0  0  0  0  0  0  0  0  0  0
    3.5236  -10.4512   18.3433 N   0  0  0  0  0  0  0  0  0  0  0  0
    6.5246   -8.6146   17.0926 C   0  0  0  0  0  0  0  0  0  0  0  0
  1  8  4  0
  1 19  4  0
  1 26  1  0
  2 14  1  0
  2 18  1  0
  3  6  4  0
  3 10  4  0
  4 15  4  0
  4 23  4  0
  5 20  4  0
  5 27  4  0
  6 19  4  0
  7 24  4  0
  8 10  4  0
  9 34  1  0
 11 20  4  0
 11 22  4  0
 11 30  1  0
 12 26  2  0
 13 17  4  0
 16 26  1  0
 21 28  4  0
 22 29  4  0
 23 30  4  0
 24 25  4  0
 27 29  4  0
 28 33  4  0
 30 33  4  0
M  END
$$$$

 Created by Python create_sdf_string function

 34 99  0  0  0  0  0  0  0  0999 V2000
   12.8225   -4.5229   21.9593 C   0  0  0  0  0  0  0  0  0  0  0  0
   11.2762   -6.2108   20.3137 C   0  0  0  0  0  0  0  0  0  0  0  0
    2.9831   -9.5723   16.3105 C   0  0  0  0  0  0  0  0  0  0  0  0
    2.4186  -12.4921   21.2048 O   0  0  0  0  0  0  0  0  0  0  0  0
   10.5842   -4.4141   20.3803 C   0  0  0  0  0  0  0  0  0  0  0  0
    9.7457   -3.5966   16.3716 N   0  0  0  0  0  0  0  0  0  0  0  0
   12.5919   -4.3281   20.7157 C   0  0  0  0  0  0  0  0  0  0  0  0
   12.1157   -5.4481   19.5499 C   0  0  0  0  0  0  0  0  0  0  0  0
   12.2309   -4.8661   23.1461 O   0  0  0  0  0  0  0  0  0  0  0  0
    7.8276   -6.1299   15.5901 C   0  0  0  0  0  0  0  0  0  0  0  0
    9.7486   -7.0579   17.8241 C   0  0  0  0  0  0  0  0  0  0  0  0
    3.6238   -8.6872   15.5345 N   0  0  0  0  0  0  0  0  0  0  0  0
   13.4214   -5.2984   23.4872 O   0  0  0  0  0  0  0  0  0  0  0  0
    6.1486   -6.3118   15.5316 C   0  0  0  0  0  0  0  0  0  0  0  0
    8.6858   -8.3827   17.3124 C   0  0  0  0  0  0  0  0  0  0  0  0
   10.9400   -4.2500   21.6399 C   0  0  0  0  0  0  0  0  0  0  0  0
    1.8672  -11.6366   19.9389 P   0  0  0  0  0  0  0  0  0  0  0  0
    4.0071  -10.5090   17.9330 C   0  0  0  0  0  0  0  0  0  0  0  0
    0.2192  -11.1921   19.2199 O   0  0  0  0  0  0  0  0  0  0  0  0
    9.8226   -4.3132   16.2540 C   0  0  0  0  0  0  0  0  0  0  0  0
    9.6656   -3.6956   16.9379 P   0  0  0  0  0  0  0  0  0  0  0  0
   13.4549   -5.0842   23.0281 C   0  0  0  0  0  0  0  0  0  0  0  0
    0.3957  -12.3379   21.6578 C   0  0  0  0  0  0  0  0  0  0  0  0
    3.9329  -10.1267   17.8145 C   0  0  0  0  0  0  0  0  0  0  0  0
    0.3198  -12.2237   21.0388 C   0  0  0  0  0  0  0  0  0  0  0  0
    1.6207  -10.0484   18.2566 C   0  0  0  0  0  0  0  0  0  0  0  0
   10.9299   -5.4713   18.7923 C   0  0  0  0  0  0  0  0  0  0  0  0
    8.9775   -7.9964   17.5352 He  0  0  0  0  0  0  0  0  0  0  0  0
    5.7439   -8.8457   16.9348 He  0  0  0  0  0  0  0  0  0  0  0  0
    1.4420  -11.7614   19.1655 He  0  0  0  0  0  0  0  0  0  0  0  0
    1.5606  -10.2982   17.5072 He  0  0  0  0  0  0  0  0  0  0  0  0
    7.2457   -7.6562   15.0250 He  0  0  0  0  0  0  0  0  0  0  0  0
    3.4226  -10.7315   18.2749 He  0  0  0  0  0  0  0  0  0  0  0  0
    6.0987   -8.7379   17.4661 He  0  0  0  0  0  0  0  0  0  0  0  0
  1  3  1  0
  1  6  1  0
  1  7  4  0
  1 11  2  0
  1 15  1  0
  1 18  4  0
  1 20  1  0
  1 22  1  0
  1 25  4  0
  2  4  3  0
  2  9  4  0
  2 11  4  0
  2 12  4  0
  2 14  3  0
  2 16  3  0
  2 20  2  0
  3  6  2  0
  3 12  4  0
  3 13  3  0
  3 14  1  0
  3 17  2  0
  3 18  4  0
  3 20  2  0
  3 24  2  0
  3 25  4  0
  4  5  1  0
  4 11  3  0
  4 13  1  0
  4 14  2  0
  4 19  4  0
  4 25  1  0
  4 27  2  0
  5  6  2  0
  5 11  2  0
  5 16  4  0
  5 23  1  0
  6 16  3  0
  6 20  2  0
  6 21  4  0
  6 23  3  0
  7  8  4  0
  7 10  2  0
  7 11  3  0
  7 13  2  0
  7 14  4  0
  7 16  3  0
  7 19  4  0
  7 20  4  0
  7 22  4  0
  7 23  2  0
  7 24  1  0
  8 17  1  0
  8 18  2  0
  8 20  3  0
  8 21  2  0
  9 10  3  0
  9 26  1  0
  9 27  2  0
 10 12  2  0
 10 14  4  0
 10 24  4  0
 10 26  4  0
 11 16  4  0
 11 19  1  0
 11 20  2  0
 11 23  2  0
 11 26  1  0
 12 15  3  0
 12 23  3  0
 12 25  1  0
 13 14  4  0
 13 16  4  0
 13 22  1  0
 13 23  2  0
 14 16  2  0
 14 20  1  0
 14 21  3  0
 14 22  2  0
 15 16  4  0
 15 18  3  0
 15 21  3  0
 15 24  3  0
 15 26  2  0
 16 22  4  0
 16 23  2  0
 16 26  3  0
 17 21  3  0
 17 24  1  0
 17 26  4  0
 18 23  1  0
 18 24  2  0
 18 25  2  0
 18 27  3  0
 19 21  4  0
 19 23  3  0
 19 25  4  0
 21 26  1  0
 23 27  3  0
 24 27  3  0
M  END
$$$$

 Created by Python create_sdf_string function

 34 34  0  0  0  0  0  0  0  0999 V2000
   12.3443   -4.7636   21.8566 C   0  0  0  0  0  0  0  0  0  0  0  0
    8.6828   -7.1641   17.2633 C   0  0  0  0  0  0  0  0  0  0  0  0
   11.0652   -4.9957   19.5746 C   0  0  0  0  0  0  0  0  0  0  0  0
    3.0262   -9.2755   16.6413 C   0  0  0  0  0  0  0  0  0  0  0  0
    2.1229  -12.2465   20.9877 C   0  0  0  0  0  0  0  0  0  0  0  0
   10.3815   -4.2785   20.5159 C   0  0  0  0  0  0  0  0  0  0  0  0
    9.6249   -4.1991   16.2511 N   0  0  0  0  0  0  0  0  0  0  0  0
   12.9235   -5.3129   20.9031 C   0  0  0  0  0  0  0  0  0  0  0  0
    5.9723   -8.5945   16.6529 C   0  0  0  0  0  0  0  0  0  0  0  0
   12.3635   -5.4581   19.6070 C   0  0  0  0  0  0  0  0  0  0  0  0
    1.3847  -11.3995   19.3564 C   0  0  0  0  0  0  0  0  0  0  0  0
   12.3221   -4.5473   24.0963 O   0  0  0  0  0  0  0  0  0  0  0  0
    7.9389   -6.2944   16.1269 C   0  0  0  0  0  0  0  0  0  0  0  0
    9.3302   -6.8281   17.7648 C   0  0  0  0  0  0  0  0  0  0  0  0
    3.9689   -8.6706   16.1179 N   0  0  0  0  0  0  0  0  0  0  0  0
   14.0813   -5.2060   23.4586 O   0  0  0  0  0  0  0  0  0  0  0  0
    6.9265   -6.7249   15.6247 C   0  0  0  0  0  0  0  0  0  0  0  0
    8.3335   -8.0966   17.4412 C   0  0  0  0  0  0  0  0  0  0  0  0
   10.9534   -4.1955   21.6142 C   0  0  0  0  0  0  0  0  0  0  0  0
    1.9922  -11.7790   19.9090 C   0  0  0  0  0  0  0  0  0  0  0  0
    4.3429   -9.9938   17.7854 C   0  0  0  0  0  0  0  0  0  0  0  0
    0.0876  -11.3838   19.5707 C   0  0  0  0  0  0  0  0  0  0  0  0
    1.6330  -10.1446   17.4382 N   0  0  0  0  0  0  0  0  0  0  0  0
    9.4713   -4.7814   16.5417 C   0  0  0  0  0  0  0  0  0  0  0  0
    9.9358   -4.6058   17.1818 N   0  0  0  0  0  0  0  0  0  0  0  0
   12.9273   -4.8483   23.0494 C   0  0  0  0  0  0  0  0  0  0  0  0
    0.6107  -12.3516   21.6058 C   0  0  0  0  0  0  0  0  0  0  0  0
    4.1667  -10.0682   17.8343 C   0  0  0  0  0  0  0  0  0  0  0  0
    0.0701  -12.0187   20.9279 C   0  0  0  0  0  0  0  0  0  0  0  0
    1.7983  -10.4861   17.9325 C   0  0  0  0  0  0  0  0  0  0  0  0
    6.8358   -7.7467   15.5348 C   0  0  0  0  0  0  0  0  0  0  0  0
   10.3425   -5.3035   18.2043 C   0  0  0  0  0  0  0  0  0  0  0  0
    3.7494  -10.7460   18.5360 N   0  0  0  0  0  0  0  0  0  0  0  0
    6.0450   -8.8654   17.2012 C   0  0  0  0  0  0  0  0  0  0  0  0
  1  8  4  0
  1 19  4  0
  1 26  1  0
  2 14  4  0
  2 18  4  0
  3  6  4  0
  3 10  4  0
  3 32  1  0
  4 15  4  0
  4 23  4  0
  5 20  4  0
  5 27  4  0
  6 19  4  0
  7 24  4  0
  7 25  4  0
  8 10  4  0
  9 31  1  0
  9 34  1  0
 11 20  4  0
 11 22  4  0
 12 26  2  0
 13 17  4  0
 14 18  4  0
 14 32  4  0
 16 26  1  0
 17 31  4  0
 21 28  4  0
 21 33  4  0
 22 29  4  0
 23 30  4  0
 24 25  4  0
 25 32  4  0
 27 29  4  0
 28 33  4  0
M  END
$$$$

 Created by Python create_sdf_string function

 34 56  0  0  0  0  0  0  0  0999 V2000
   12.3959   -4.5866   21.8306 C   0  0  0  0  0  0  0  0  0  0  0  0
   11.2561   -4.6997   19.8235 C   0  0  0  0  0  0  0  0  0  0  0  0
    3.1510   -9.3426   16.0986 O   0  0  0  0  0  0  0  0  0  0  0  0
    2.7207  -12.4475   20.2751 C   0  0  0  0  0  0  0  0  0  0  0  0
   12.3734   -5.2975   20.6129 C   0  0  0  0  0  0  0  0  0  0  0  0
   11.4378   -5.2473   19.4513 C   0  0  0  0  0  0  0  0  0  0  0  0
    1.2363  -11.4159   18.8792 C   0  0  0  0  0  0  0  0  0  0  0  0
   11.9703   -4.1147   24.9586 P   0  0  0  0  0  0  0  0  0  0  0  0
    7.6196   -6.1607   15.8622 Cl  0  0  0  0  0  0  0  0  0  0  0  0
    8.8955   -6.8047   17.8005 C   0  0  0  0  0  0  0  0  0  0  0  0
   13.2509   -5.6354   23.0638 S   0  0  0  0  0  0  0  0  0  0  0  0
    6.7565   -6.7183   14.7228 N   0  0  0  0  0  0  0  0  0  0  0  0
    8.4304   -7.8157   17.7745 C   0  0  0  0  0  0  0  0  0  0  0  0
   11.2176   -5.2149   21.6788 C   0  0  0  0  0  0  0  0  0  0  0  0
    1.9276  -10.2582   16.7682 N   0  0  0  0  0  0  0  0  0  0  0  0
    9.5161   -4.8703   16.3466 C   0  0  0  0  0  0  0  0  0  0  0  0
   12.9622   -4.8742   22.7782 C   0  0  0  0  0  0  0  0  0  0  0  0
    3.8521  -10.2155   17.6695 C   0  0  0  0  0  0  0  0  0  0  0  0
    2.2152  -10.6479   17.6770 P   0  0  0  0  0  0  0  0  0  0  0  0
    6.3796   -8.0826   15.7166 F   0  0  0  0  0  0  0  0  0  0  0  0
   10.2953   -4.8959   18.4506 C   0  0  0  0  0  0  0  0  0  0  0  0
    3.4388  -10.5947   18.6267 N   0  0  0  0  0  0  0  0  0  0  0  0
    6.6221   -8.3137   18.1926 C   0  0  0  0  0  0  0  0  0  0  0  0
    8.5570   -6.8242   17.0343 He  0  0  0  0  0  0  0  0  0  0  0  0
   10.5159   -3.8606   20.6551 He  0  0  0  0  0  0  0  0  0  0  0  0
    9.4014   -4.6848   15.9984 He  0  0  0  0  0  0  0  0  0  0  0  0
    5.4625   -9.0587   16.9670 He  0  0  0  0  0  0  0  0  0  0  0  0
    3.4568   -9.2038   17.0064 He  0  0  0  0  0  0  0  0  0  0  0  0
    2.5094  -11.9573   20.1791 He  0  0  0  0  0  0  0  0  0  0  0  0
    4.8824   -9.6019   18.6815 He  0  0  0  0  0  0  0  0  0  0  0  0
    0.0820  -11.2116   19.4757 He  0  0  0  0  0  0  0  0  0  0  0  0
    9.7436   -5.1572   17.8621 He  0  0  0  0  0  0  0  0  0  0  0  0
    0.5608  -12.5156   21.4172 He  0  0  0  0  0  0  0  0  0  0  0  0
   -0.4517  -13.0346   19.8496 He  0  0  0  0  0  0  0  0  0  0  0  0
  1  2  4  0
  1  6  2  0
  1  9  4  0
  1 15  1  0
  1 17  1  0
  1 19  4  0
  1 21  3  0
  2  4  3  0
  2  6  4  0
  2  9  3  0
  2 11  4  0
  2 21  1  0
  3  9  1  0
  3 15  4  0
  4  5  2  0
  4 14  3  0
  4 15  2  0
  4 20  3  0
  5  9  3  0
  6 12  4  0
  6 13  1  0
  6 21  4  0
  6 23  2  0
  7 11  3  0
  7 14  2  0
  7 15  4  0
  8 11  2  0
  8 18  3  0
  8 20  2  0
  9 11  2  0
  9 12  4  0
  9 19  3  0
  9 20  3  0
  9 23  1  0
 10 13  4  0
 10 22  2  0
 10 23  2  0
 11 14  2  0
 11 18  4  0
 11 21  4  0
 12 13  1  0
 12 16  1  0
 12 20  4  0
 12 21  4  0
 14 15  2  0
 14 17  4  0
 14 18  1  0
 15 17  3  0
 15 19  4  0
 15 21  2  0
 15 23  2  0
 16 20  4  0
 18 22  4  0
 18 23  4  0
 19 21  1  0
 21 22  2  0
M  END
$$$$

 Created by Python create_sdf_string function

 34 39  0  0  0  0  0  0  0  0999 V2000
   12.3087   -4.8729   21.9962 C   0  0  0  0  0  0  0  0  0  0  0  0
    8.3329   -6.8033   16.9384 C   0  0  0  0  0  0  0  0  0  0  0  0
   10.8080   -4.6669   19.6419 C   0  0  0  0  0  0  0  0  0  0  0  0
    2.9982   -9.0702   16.3510 C   0  0  0  0  0  0  0  0  0  0  0  0
    1.9904  -12.4265   20.8671 C   0  0  0  0  0  0  0  0  0  0  0  0
   10.4251   -4.1258   20.7128 C   0  0  0  0  0  0  0  0  0  0  0  0
    8.5440   -5.0846   15.8350 N   0  0  0  0  0  0  0  0  0  0  0  0
   12.8400   -5.3334   20.9969 C   0  0  0  0  0  0  0  0  0  0  0  0
    5.4585   -8.6077   16.8764 C   0  0  0  0  0  0  0  0  0  0  0  0
   11.9063   -5.4368   19.6371 C   0  0  0  0  0  0  0  0  0  0  0  0
    1.3322  -11.3843   18.8766 C   0  0  0  0  0  0  0  0  0  0  0  0
   12.1369   -4.4112   24.4744 O   0  0  0  0  0  0  0  0  0  0  0  0
    7.8682   -6.1834   15.8997 C   0  0  0  0  0  0  0  0  0  0  0  0
    9.1181   -6.5539   17.7066 C   0  0  0  0  0  0  0  0  0  0  0  0
    4.0807   -9.2353   16.9830 C   0  0  0  0  0  0  0  0  0  0  0  0
   13.6533   -5.4841   23.3321 O   0  0  0  0  0  0  0  0  0  0  0  0
    6.7726   -6.8915   15.2986 C   0  0  0  0  0  0  0  0  0  0  0  0
    8.2650   -7.5785   17.7227 C   0  0  0  0  0  0  0  0  0  0  0  0
   11.1314   -4.2728   21.8716 C   0  0  0  0  0  0  0  0  0  0  0  0
    2.3189  -11.9453   19.8668 C   0  0  0  0  0  0  0  0  0  0  0  0
    5.1463  -10.0500   18.8549 O   0  0  0  0  0  0  0  0  0  0  0  0
    0.0835  -11.7872   19.2249 C   0  0  0  0  0  0  0  0  0  0  0  0
    1.9826   -9.7271   16.8581 N   0  0  0  0  0  0  0  0  0  0  0  0
    9.4723   -4.5833   16.3751 C   0  0  0  0  0  0  0  0  0  0  0  0
    9.8614   -5.2037   17.6378 N   0  0  0  0  0  0  0  0  0  0  0  0
   12.6726   -4.9255   23.1353 C   0  0  0  0  0  0  0  0  0  0  0  0
    0.7266  -12.7299   21.1326 C   0  0  0  0  0  0  0  0  0  0  0  0
    4.1782   -9.9882   18.0216 C   0  0  0  0  0  0  0  0  0  0  0  0
   -0.1721  -12.4107   20.3128 C   0  0  0  0  0  0  0  0  0  0  0  0
    2.0076  -10.5238   17.9761 C   0  0  0  0  0  0  0  0  0  0  0  0
    5.9343   -7.8392   15.9342 C   0  0  0  0  0  0  0  0  0  0  0  0
   10.3008   -4.4033   18.4068 C   0  0  0  0  0  0  0  0  0  0  0  0
    3.3727  -10.5641   18.3579 N   0  0  0  0  0  0  0  0  0  0  0  0
    6.4193   -8.3650   17.7518 C   0  0  0  0  0  0  0  0  0  0  0  0
  1  8  4  0
  1 19  4  0
  1 26  1  0
  2 13  4  0
  2 14  4  0
  2 18  4  0
  3  6  4  0
  3 10  4  0
  3 32  1  0
  4 15  4  0
  4 23  4  0
  5 20  4  0
  5 27  4  0
  6 19  4  0
  7 13  4  0
  7 24  4  0
  8 10  4  0
  9 15  1  0
  9 31  4  0
  9 34  4  0
 11 20  4  0
 11 22  4  0
 11 30  1  0
 12 26  1  0
 13 17  4  0
 14 18  4  0
 14 25  4  0
 15 28  4  0
 16 26  1  0
 17 31  4  0
 18 34  4  0
 21 28  4  0
 22 29  4  0
 23 30  4  0
 24 25  4  0
 25 32  1  0
 27 29  4  0
 28 33  4  0
 30 33  4  0
M  END
$$$$

 Created by Python create_sdf_string function

 34 62  0  0  0  0  0  0  0  0999 V2000
   12.4153   -5.2453   21.3183 C   0  0  0  0  0  0  0  0  0  0  0  0
    8.2752   -6.8478   17.4399 C   0  0  0  0  0  0  0  0  0  0  0  0
    8.4702   -5.5977   16.0084 N   0  0  0  0  0  0  0  0  0  0  0  0
   12.5515   -5.7102   21.9798 C   0  0  0  0  0  0  0  0  0  0  0  0
   12.2689   -4.9837   18.1450 C   0  0  0  0  0  0  0  0  0  0  0  0
    0.9888  -11.7848   19.2690 C   0  0  0  0  0  0  0  0  0  0  0  0
   11.9116   -5.1030   24.0424 O   0  0  0  0  0  0  0  0  0  0  0  0
    8.9845   -5.5705   17.7096 C   0  0  0  0  0  0  0  0  0  0  0  0
    8.5093   -6.1930   18.1394 C   0  0  0  0  0  0  0  0  0  0  0  0
    4.4351   -9.5674   16.5728 F   0  0  0  0  0  0  0  0  0  0  0  0
    6.7573   -6.7248   14.9917 C   0  0  0  0  0  0  0  0  0  0  0  0
   10.9013   -4.1928   21.5863 C   0  0  0  0  0  0  0  0  0  0  0  0
    2.8761  -12.0709   19.0391 Br  0  0  0  0  0  0  0  0  0  0  0  0
    5.3424   -9.6482   17.5386 O   0  0  0  0  0  0  0  0  0  0  0  0
    0.3892  -11.7651   19.3588 C   0  0  0  0  0  0  0  0  0  0  0  0
    9.5439   -4.7994   16.5963 C   0  0  0  0  0  0  0  0  0  0  0  0
    4.2549   -9.8407   17.9643 C   0  0  0  0  0  0  0  0  0  0  0  0
    2.2526  -10.6205   17.8916 C   0  0  0  0  0  0  0  0  0  0  0  0
    6.2071   -7.1768   16.3705 C   0  0  0  0  0  0  0  0  0  0  0  0
   10.5191   -4.4537   18.0897 P   0  0  0  0  0  0  0  0  0  0  0  0
    3.6442  -10.4318   18.4370 N   0  0  0  0  0  0  0  0  0  0  0  0
    6.2689   -9.0313   16.4663 S   0  0  0  0  0  0  0  0  0  0  0  0
   10.6379   -4.2567   19.9377 He  0  0  0  0  0  0  0  0  0  0  0  0
    3.0287   -9.0910   16.4714 He  0  0  0  0  0  0  0  0  0  0  0  0
    1.8229  -12.0647   21.9852 He  0  0  0  0  0  0  0  0  0  0  0  0
   10.7338   -4.2464   20.4254 He  0  0  0  0  0  0  0  0  0  0  0  0
    4.7818   -8.4571   16.7549 He  0  0  0  0  0  0  0  0  0  0  0  0
   12.5679   -5.8261   23.7550 He  0  0  0  0  0  0  0  0  0  0  0  0
    7.5079   -8.1462   18.2951 He  0  0  0  0  0  0  0  0  0  0  0  0
    2.4694  -10.3077   16.9775 He  0  0  0  0  0  0  0  0  0  0  0  0
    8.6163   -4.6183   18.2390 He  0  0  0  0  0  0  0  0  0  0  0  0
   12.5379   -5.0272   22.9309 He  0  0  0  0  0  0  0  0  0  0  0  0
    0.7265  -12.9113   20.9456 He  0  0  0  0  0  0  0  0  0  0  0  0
   -0.1445  -12.3073   19.7673 He  0  0  0  0  0  0  0  0  0  0  0  0
  1  2  4  0
  1  3  1  0
  1  4  1  0
  1  8  4  0
  1 15  1  0
  2  3  2  0
  2  4  3  0
  2  5  1  0
  2  6  1  0
  2  8  4  0
  2 11  1  0
  2 13  3  0
  2 14  3  0
  3  6  1  0
  3  8  4  0
  3 11  4  0
  3 12  1  0
  3 16  4  0
  3 19  2  0
  3 21  3  0
  4 21  4  0
  5  6  3  0
  5 10  3  0
  5 16  4  0
  5 19  4  0
  5 22  2  0
  6  7  1  0
  6  8  1  0
  6 10  4  0
  6 12  2  0
  6 15  4  0
  6 21  4  0
  7 15  2  0
  7 16  2  0
  7 18  2  0
  7 20  2  0
  7 21  1  0
  8 19  3  0
  9 11  4  0
  9 14  4  0
  9 21  1  0
 10 15  1  0
 10 16  4  0
 10 17  4  0
 11 14  1  0
 11 16  3  0
 11 17  1  0
 11 19  3  0
 11 20  3  0
 12 14  4  0
 12 15  1  0
 13 14  3  0
 13 21  1  0
 14 17  4  0
 14 19  4  0
 14 21  3  0
 15 20  1  0
 15 21  2  0
 15 22  4  0
 17 21  4  0
 18 21  4  0
 19 20  1  0
M  END
$$$$

 Created by Python create_sdf_string function

 34 35  0  0  0  0  0  0  0  0999 V2000
   12.4571   -5.0581   21.2936 C   0  0  0  0  0  0  0  0  0  0  0  0
    7.8575   -6.9631   17.1082 C   0  0  0  0  0  0  0  0  0  0  0  0
   11.2546   -4.5795   20.1979 C   0  0  0  0  0  0  0  0  0  0  0  0
    2.8539   -9.1195   16.3679 C   0  0  0  0  0  0  0  0  0  0  0  0
    1.8315  -12.4315   21.3638 C   0  0  0  0  0  0  0  0  0  0  0  0
   10.6803   -4.1301   20.9487 C   0  0  0  0  0  0  0  0  0  0  0  0
    8.7882   -5.2573   16.0581 N   0  0  0  0  0  0  0  0  0  0  0  0
   12.6015   -5.1263   21.6245 C   0  0  0  0  0  0  0  0  0  0  0  0
    5.3502   -8.5995   16.4868 C   0  0  0  0  0  0  0  0  0  0  0  0
   11.4006   -4.3276   17.8770 C   0  0  0  0  0  0  0  0  0  0  0  0
    1.5907  -11.4110   19.0947 C   0  0  0  0  0  0  0  0  0  0  0  0
   11.7136   -4.7771   24.2601 O   0  0  0  0  0  0  0  0  0  0  0  0
    8.6812   -5.9658   17.0890 C   0  0  0  0  0  0  0  0  0  0  0  0
    9.0256   -5.9772   18.2802 C   0  0  0  0  0  0  0  0  0  0  0  0
    4.1817   -9.1884   16.8393 C   0  0  0  0  0  0  0  0  0  0  0  0
   13.1259   -5.7913   23.7732 O   0  0  0  0  0  0  0  0  0  0  0  0
    6.7313   -6.6596   15.4531 C   0  0  0  0  0  0  0  0  0  0  0  0
    7.4243   -8.1649   17.5249 C   0  0  0  0  0  0  0  0  0  0  0  0
   10.8946   -4.0310   22.1528 C   0  0  0  0  0  0  0  0  0  0  0  0
    2.2787  -11.9291   20.2370 C   0  0  0  0  0  0  0  0  0  0  0  0
    5.6693   -9.8099   18.2295 O   0  0  0  0  0  0  0  0  0  0  0  0
    0.4018  -11.7788   19.0490 C   0  0  0  0  0  0  0  0  0  0  0  0
    2.0254   -9.8074   17.0629 N   0  0  0  0  0  0  0  0  0  0  0  0
   10.0195   -4.4904   16.3240 C   0  0  0  0  0  0  0  0  0  0  0  0
    9.8561   -5.1126   18.4728 C   0  0  0  0  0  0  0  0  0  0  0  0
   12.3193   -5.1389   23.2028 C   0  0  0  0  0  0  0  0  0  0  0  0
    0.5768  -12.6133   21.3199 C   0  0  0  0  0  0  0  0  0  0  0  0
    4.3681  -10.0056   17.8344 C   0  0  0  0  0  0  0  0  0  0  0  0
   -0.1735  -12.3739   20.1725 C   0  0  0  0  0  0  0  0  0  0  0  0
    2.3190  -10.6588   18.1148 C   0  0  0  0  0  0  0  0  0  0  0  0
    5.8697   -7.3672   15.7550 C   0  0  0  0  0  0  0  0  0  0  0  0
   10.7159   -4.3045   18.4372 C   0  0  0  0  0  0  0  0  0  0  0  0
    3.5924  -10.6492   18.3209 N   0  0  0  0  0  0  0  0  0  0  0  0
    6.2876   -8.8671   17.3292 C   0  0  0  0  0  0  0  0  0  0  0  0
  1  3  4  0
  1  8  4  0
  2 13  4  0
  2 18  4  0
  3  6  4  0
  4 15  4  0
  4 23  4  0
  5 20  4  0
  5 27  4  0
  6 19  4  0
  7 13  4  0
  7 24  4  0
  8 26  4  0
  9 15  4  0
  9 31  4  0
  9 34  4  0
 10 24  4  0
 11 20  4  0
 11 22  4  0
 11 30  1  0
 12 26  2  0
 13 14  4  0
 14 25  4  0
 15 28  4  0
 16 26  1  0
 17 31  4  0
 18 34  4  0
 21 28  4  0
 21 34  4  0
 22 29  4  0
 23 30  4  0
 25 32  1  0
 27 29  4  0
 28 33  4  0
 30 33  4  0
M  END
$$$$

 Created by Python create_sdf_string function

 34 87  0  0  0  0  0  0  0  0999 V2000
   12.5082   -4.9081   21.5685 C   0  0  0  0  0  0  0  0  0  0  0  0
   10.8104   -5.3434   20.2727 C   0  0  0  0  0  0  0  0  0  0  0  0
    2.8235   -9.0259   16.4234 C   0  0  0  0  0  0  0  0  0  0  0  0
    2.7908  -12.6815   21.5901 F   0  0  0  0  0  0  0  0  0  0  0  0
   10.7269   -4.0896   20.6206 C   0  0  0  0  0  0  0  0  0  0  0  0
   11.7641   -4.8828   21.1680 S   0  0  0  0  0  0  0  0  0  0  0  0
    5.0726   -8.8640   15.4975 S   0  0  0  0  0  0  0  0  0  0  0  0
    1.0612  -11.1057   19.5311 C   0  0  0  0  0  0  0  0  0  0  0  0
   11.4512   -4.8360   23.3272 F   0  0  0  0  0  0  0  0  0  0  0  0
    8.7951   -6.7598   16.6075 O   0  0  0  0  0  0  0  0  0  0  0  0
    7.2377   -5.1451   17.4869 O   0  0  0  0  0  0  0  0  0  0  0  0
    5.1807   -9.3781   16.9317 C   0  0  0  0  0  0  0  0  0  0  0  0
    9.8992   -5.0778   22.2822 N   0  0  0  0  0  0  0  0  0  0  0  0
    2.2814  -11.4379   20.4349 C   0  0  0  0  0  0  0  0  0  0  0  0
    6.5184   -9.1909   18.0693 S   0  0  0  0  0  0  0  0  0  0  0  0
   -0.0015  -12.0559   19.0069 C   0  0  0  0  0  0  0  0  0  0  0  0
    1.8559   -9.5504   17.1333 I   0  0  0  0  0  0  0  0  0  0  0  0
    9.8329   -4.4111   16.5058 C   0  0  0  0  0  0  0  0  0  0  0  0
    9.6229   -4.3351   17.7475 C   0  0  0  0  0  0  0  0  0  0  0  0
   12.6701   -5.2702   22.8521 C   0  0  0  0  0  0  0  0  0  0  0  0
    0.4698  -12.5484   21.2712 O   0  0  0  0  0  0  0  0  0  0  0  0
    4.6398  -10.0710   17.4562 C   0  0  0  0  0  0  0  0  0  0  0  0
   -0.8176  -11.6902   20.5120 C   0  0  0  0  0  0  0  0  0  0  0  0
    2.5629  -10.8149   18.5386 C   0  0  0  0  0  0  0  0  0  0  0  0
    5.0412   -6.5901   16.6692 Se  0  0  0  0  0  0  0  0  0  0  0  0
   10.6675   -4.1458   18.7619 S   0  0  0  0  0  0  0  0  0  0  0  0
    3.4684  -10.5770   18.1766 N   0  0  0  0  0  0  0  0  0  0  0  0
    6.9417  -10.2355   17.0221 C   0  0  0  0  0  0  0  0  0  0  0  0
    7.3830   -6.3972   17.1622 He  0  0  0  0  0  0  0  0  0  0  0  0
    9.6293   -5.2080   16.2922 He  0  0  0  0  0  0  0  0  0  0  0  0
   10.9654   -4.8730   18.5754 He  0  0  0  0  0  0  0  0  0  0  0  0
   13.7813   -5.5607   23.5548 He  0  0  0  0  0  0  0  0  0  0  0  0
    7.4698   -7.5949   14.7297 He  0  0  0  0  0  0  0  0  0  0  0  0
    7.9655   -7.3303   17.4198 He  0  0  0  0  0  0  0  0  0  0  0  0
  1  4  4  0
  1  9  3  0
  1 11  2  0
  1 13  4  0
  2  5  4  0
  2 15  2  0
  2 16  4  0
  2 20  3  0
  2 24  3  0
  2 26  2  0
  3  6  3  0
  3  7  4  0
  3 11  2  0
  3 12  4  0
  3 17  4  0
  3 19  4  0
  3 22  2  0
  3 25  1  0
  4  6  4  0
  4  7  3  0
  4 14  4  0
  4 20  3  0
  4 21  4  0
  4 24  1  0
  5  9  4  0
  5 16  2  0
  5 20  1  0
  5 21  2  0
  5 25  1  0
  5 27  1  0
  6 15  3  0
  6 17  3  0
  6 20  4  0
  6 22  3  0
  6 23  2  0
  7 12  4  0
  7 19  4  0
  7 22  1  0
  7 28  4  0
  8 14  4  0
  8 16  4  0
  8 17  2  0
  8 24  1  0
  8 25  4  0
  9 15  4  0
  9 19  4  0
  9 27  1  0
  9 28  3  0
 10 11  4  0
 10 14  4  0
 10 20  4  0
 10 21  1  0
 10 23  3  0
 10 28  4  0
 11 16  3  0
 11 17  1  0
 11 19  4  0
 11 22  2  0
 11 25  4  0
 11 26  4  0
 12 18  3  0
 12 20  4  0
 12 21  4  0
 12 22  4  0
 12 27  3  0
 13 25  2  0
 14 18  4  0
 14 21  4  0
 14 22  2  0
 14 28  1  0
 15 24  3  0
 15 26  1  0
 15 28  4  0
 16 23  4  0
 16 24  3  0
 16 27  2  0
 17 23  4  0
 17 24  4  0
 17 26  1  0
 18 28  2  0
 19 23  3  0
 19 25  1  0
 21 23  4  0
 21 28  3  0
 22 25  4  0
 22 27  4  0
 24 27  4  0
M  END
$$$$

 Created by Python create_sdf_string function

 34 33  0  0  0  0  0  0  0  0999 V2000
   12.2346   -4.9849   21.3172 C   0  0  0  0  0  0  0  0  0  0  0  0
    7.3190   -7.1831   16.8122 C   0  0  0  0  0  0  0  0  0  0  0  0
   11.1713   -4.5784   20.2564 C   0  0  0  0  0  0  0  0  0  0  0  0
    2.7987   -9.2765   16.5398 C   0  0  0  0  0  0  0  0  0  0  0  0
    1.5357  -12.3101   21.4608 C   0  0  0  0  0  0  0  0  0  0  0  0
   10.5497   -4.2637   20.9536 C   0  0  0  0  0  0  0  0  0  0  0  0
    9.5137   -5.2426   15.9660 C   0  0  0  0  0  0  0  0  0  0  0  0
   12.7978   -5.1420   21.6940 C   0  0  0  0  0  0  0  0  0  0  0  0
    5.2314   -8.7702   15.9335 C   0  0  0  0  0  0  0  0  0  0  0  0
   10.7373   -4.5485   18.2537 C   0  0  0  0  0  0  0  0  0  0  0  0
    1.5727  -11.2998   19.3046 C   0  0  0  0  0  0  0  0  0  0  0  0
   11.5024   -4.7317   23.5552 C   0  0  0  0  0  0  0  0  0  0  0  0
    8.4778   -6.1258   16.5847 C   0  0  0  0  0  0  0  0  0  0  0  0
    8.6394   -5.3693   17.6974 N   0  0  0  0  0  0  0  0  0  0  0  0
    4.2313   -9.3914   16.8134 C   0  0  0  0  0  0  0  0  0  0  0  0
   13.7752   -5.4788   23.7212 O   0  0  0  0  0  0  0  0  0  0  0  0
    7.4662   -7.8086   15.2291 C   0  0  0  0  0  0  0  0  0  0  0  0
    8.0218   -7.8096   17.4595 C   0  0  0  0  0  0  0  0  0  0  0  0
   10.9316   -4.3920   22.5463 N   0  0  0  0  0  0  0  0  0  0  0  0
    2.1935  -12.0418   20.3679 C   0  0  0  0  0  0  0  0  0  0  0  0
    6.7565   -8.9752   17.6626 C   0  0  0  0  0  0  0  0  0  0  0  0
    0.2188  -11.3284   19.3628 C   0  0  0  0  0  0  0  0  0  0  0  0
    1.9165   -9.8870   17.3317 N   0  0  0  0  0  0  0  0  0  0  0  0
   10.0789   -4.3884   16.3552 C   0  0  0  0  0  0  0  0  0  0  0  0
    9.9477   -4.6362   17.9099 C   0  0  0  0  0  0  0  0  0  0  0  0
   12.9118   -5.2195   23.0351 C   0  0  0  0  0  0  0  0  0  0  0  0
    0.2138  -12.3463   21.4500 C   0  0  0  0  0  0  0  0  0  0  0  0
    4.5029  -10.0488   17.7536 C   0  0  0  0  0  0  0  0  0  0  0  0
   -0.4460  -11.8807   20.4076 C   0  0  0  0  0  0  0  0  0  0  0  0
    2.3222  -10.6471   18.3782 C   0  0  0  0  0  0  0  0  0  0  0  0
    5.7768   -7.3322   16.2846 C   0  0  0  0  0  0  0  0  0  0  0  0
   10.8842   -3.8056   18.8856 O   0  0  0  0  0  0  0  0  0  0  0  0
    3.7356  -10.6483   18.5107 N   0  0  0  0  0  0  0  0  0  0  0  0
    6.5109   -9.0199   16.6675 C   0  0  0  0  0  0  0  0  0  0  0  0
  1  8  4  0
  2 13  4  0
  2 18  1  0
  2 31  4  0
  3  6  4  0
  4 15  4  0
  4 23  4  0
  5 20  4  0
  5 27  4  0
  6 19  4  0
  7 13  4  0
  7 24  4  0
  8 26  4  0
  9 15  4  0
  9 34  4  0
 10 24  4  0
 10 25  1  0
 11 20  4  0
 11 22  4  0
 11 30  1  0
 12 19  4  0
 12 26  4  0
 13 14  4  0
 14 25  4  0
 15 28  4  0
 16 26  1  0
 21 34  4  0
 22 29  4  0
 23 30  4  0
 24 25  4  0
 27 29  4  0
 28 33  4  0
 30 33  4  0
M  END
$$$$

 Created by Python create_sdf_string function

 34 90  0  0  0  0  0  0  0  0999 V2000
   12.4955   -5.2758   21.1214 C   0  0  0  0  0  0  0  0  0  0  0  0
    6.9074   -7.3780   16.3414 C   0  0  0  0  0  0  0  0  0  0  0  0
   10.9513   -4.5998   20.2272 P   0  0  0  0  0  0  0  0  0  0  0  0
    2.6343   -9.2733   16.3171 C   0  0  0  0  0  0  0  0  0  0  0  0
    1.8917  -11.7785   20.7876 C   0  0  0  0  0  0  0  0  0  0  0  0
   10.4357   -4.0796   20.8176 C   0  0  0  0  0  0  0  0  0  0  0  0
    9.4764   -4.0752   16.5548 C   0  0  0  0  0  0  0  0  0  0  0  0
    4.9051  -10.1394   15.2787 C   0  0  0  0  0  0  0  0  0  0  0  0
   10.2339   -4.8023   18.0583 O   0  0  0  0  0  0  0  0  0  0  0  0
    1.6141  -11.5114   19.4192 C   0  0  0  0  0  0  0  0  0  0  0  0
    8.7380   -5.3153   17.0471 N   0  0  0  0  0  0  0  0  0  0  0  0
    4.7731  -10.3633   17.2702 C   0  0  0  0  0  0  0  0  0  0  0  0
   13.9729   -6.3830   25.3392 O   0  0  0  0  0  0  0  0  0  0  0  0
    8.1756   -8.6459   17.7010 C   0  0  0  0  0  0  0  0  0  0  0  0
   10.5704   -4.6315   21.9500 N   0  0  0  0  0  0  0  0  0  0  0  0
    2.3649  -11.5163   19.8190 O   0  0  0  0  0  0  0  0  0  0  0  0
    5.9534   -8.7715   16.6113 C   0  0  0  0  0  0  0  0  0  0  0  0
    0.1438  -11.1223   19.3748 C   0  0  0  0  0  0  0  0  0  0  0  0
    1.9554  -10.2256   17.1689 N   0  0  0  0  0  0  0  0  0  0  0  0
    9.9152   -4.3360   16.2861 C   0  0  0  0  0  0  0  0  0  0  0  0
    9.9420   -5.3343   16.9381 C   0  0  0  0  0  0  0  0  0  0  0  0
   12.7533   -5.0947   23.1131 Cl  0  0  0  0  0  0  0  0  0  0  0  0
    0.4309  -12.1347   21.4680 C   0  0  0  0  0  0  0  0  0  0  0  0
    4.6598  -10.0594   17.8330 C   0  0  0  0  0  0  0  0  0  0  0  0
    5.6672   -7.8850   15.9992 C   0  0  0  0  0  0  0  0  0  0  0  0
   10.5788   -3.6691   18.8483 O   0  0  0  0  0  0  0  0  0  0  0  0
    4.1897  -10.7754   18.0037 O   0  0  0  0  0  0  0  0  0  0  0  0
    6.8524   -8.7398   17.2804 C   0  0  0  0  0  0  0  0  0  0  0  0
   12.4775   -5.4522   22.0458 He  0  0  0  0  0  0  0  0  0  0  0  0
   10.9127   -4.7048   22.5313 He  0  0  0  0  0  0  0  0  0  0  0  0
    7.9298   -6.2936   18.1749 He  0  0  0  0  0  0  0  0  0  0  0  0
    7.5071   -7.4215   14.9059 He  0  0  0  0  0  0  0  0  0  0  0  0
   -0.2697  -11.8798   19.6970 He  0  0  0  0  0  0  0  0  0  0  0  0
    1.9966  -10.5060   18.3540 He  0  0  0  0  0  0  0  0  0  0  0  0
  1 15  4  0
  1 16  3  0
  1 25  4  0
  1 27  4  0
  2  3  1  0
  2  4  3  0
  2  5  3  0
  2  6  1  0
  2  8  2  0
  2 11  2  0
  2 14  3  0
  2 16  2  0
  2 21  4  0
  2 22  1  0
  3 10  3  0
  3 12  4  0
  3 23  3  0
  3 25  4  0
  4  5  2  0
  4  7  4  0
  4  9  2  0
  4 18  2  0
  4 19  4  0
  5 12  3  0
  5 16  4  0
  5 20  1  0
  5 23  4  0
  5 25  1  0
  5 28  2  0
  6  9  4  0
  6 12  3  0
  6 15  4  0
  6 18  1  0
  6 21  3  0
  7 10  4  0
  7 14  3  0
  7 17  2  0
  7 20  3  0
  8  9  4  0
  8 11  4  0
  8 14  1  0
  8 15  2  0
  8 20  1  0
  8 21  3  0
  8 24  1  0
  8 26  3  0
  8 27  3  0
  8 28  4  0
  9 14  1  0
  9 16  3  0
  9 20  1  0
 10 14  4  0
 10 18  4  0
 10 28  2  0
 11 12  1  0
 11 14  2  0
 11 19  3  0
 11 20  2  0
 11 21  4  0
 11 23  3  0
 12 17  1  0
 12 18  3  0
 12 21  3  0
 12 23  1  0
 13 17  4  0
 13 23  4  0
 13 27  3  0
 14 24  2  0
 15 16  1  0
 15 24  1  0
 16 18  1  0
 16 24  1  0
 16 26  1  0
 17 21  2  0
 17 22  4  0
 17 28  4  0
 18 21  3  0
 18 27  1  0
 19 24  4  0
 19 27  4  0
 20 21  3  0
 20 25  4  0
 20 28  1  0
 21 27  3  0
 22 25  3  0
 22 26  4  0
 22 27  3  0
 24 27  4  0
 24 28  4  0
 25 28  1  0
M  END
$$$$

 Created by Python create_sdf_string function

 34 33  0  0  0  0  0  0  0  0999 V2000
   12.5701   -5.1737   20.9558 C   0  0  0  0  0  0  0  0  0  0  0  0
    7.7038   -6.9838   16.4150 C   0  0  0  0  0  0  0  0  0  0  0  0
   11.3061   -4.5698   20.1709 C   0  0  0  0  0  0  0  0  0  0  0  0
    2.9254   -9.3764   16.3323 C   0  0  0  0  0  0  0  0  0  0  0  0
    1.4241  -12.1249   21.4507 C   0  0  0  0  0  0  0  0  0  0  0  0
   10.3663   -4.0740   20.7137 C   0  0  0  0  0  0  0  0  0  0  0  0
    9.4032   -4.1845   16.2432 C   0  0  0  0  0  0  0  0  0  0  0  0
   12.4253   -5.1151   22.2841 C   0  0  0  0  0  0  0  0  0  0  0  0
    4.9163   -9.2542   15.1691 C   0  0  0  0  0  0  0  0  0  0  0  0
   10.5108   -4.7099   18.3912 C   0  0  0  0  0  0  0  0  0  0  0  0
    1.5409  -11.2436   19.2497 C   0  0  0  0  0  0  0  0  0  0  0  0
   11.2698   -4.5659   22.8155 C   0  0  0  0  0  0  0  0  0  0  0  0
    8.2363   -6.1923   17.2674 C   0  0  0  0  0  0  0  0  0  0  0  0
    8.9336   -5.7245   16.9983 N   0  0  0  0  0  0  0  0  0  0  0  0
    4.3988   -9.5413   16.7746 C   0  0  0  0  0  0  0  0  0  0  0  0
   13.2134   -5.7819   24.1697 O   0  0  0  0  0  0  0  0  0  0  0  0
    7.2071   -7.2329   15.2708 C   0  0  0  0  0  0  0  0  0  0  0  0
    8.0001   -8.1436   17.6795 C   0  0  0  0  0  0  0  0  0  0  0  0
   10.4610   -3.9386   22.1485 N   0  0  0  0  0  0  0  0  0  0  0  0
    2.1295  -11.8132   20.4638 C   0  0  0  0  0  0  0  0  0  0  0  0
    5.9967   -8.8420   16.6089 C   0  0  0  0  0  0  0  0  0  0  0  0
    0.2483  -11.3450   19.1544 C   0  0  0  0  0  0  0  0  0  0  0  0
    2.0894   -9.9484   17.2197 N   0  0  0  0  0  0  0  0  0  0  0  0
    9.7814   -4.1415   16.2298 C   0  0  0  0  0  0  0  0  0  0  0  0
    9.8723   -5.3488   17.7062 C   0  0  0  0  0  0  0  0  0  0  0  0
   13.1120   -5.4833   23.2049 C   0  0  0  0  0  0  0  0  0  0  0  0
    0.0596  -12.1653   21.3721 C   0  0  0  0  0  0  0  0  0  0  0  0
    4.7201  -10.0207   17.6969 C   0  0  0  0  0  0  0  0  0  0  0  0
   -0.4548  -11.7609   20.2418 C   0  0  0  0  0  0  0  0  0  0  0  0
    2.3852  -10.6816   18.3124 C   0  0  0  0  0  0  0  0  0  0  0  0
    6.0576   -7.8301   15.2785 C   0  0  0  0  0  0  0  0  0  0  0  0
   10.9997   -4.0656   18.5772 C   0  0  0  0  0  0  0  0  0  0  0  0
    3.7587  -10.7353   18.5246 N   0  0  0  0  0  0  0  0  0  0  0  0
    6.8343   -8.8961   17.3351 C   0  0  0  0  0  0  0  0  0  0  0  0
  1  3  4  0
  1  8  4  0
  2 13  1  0
  2 17  4  0
  3  6  4  0
  3 32  1  0
  4 15  4  0
  4 23  4  0
  5 20  4  0
  5 27  4  0
  6 19  4  0
  7 24  4  0
  8 12  4  0
  8 26  1  0
 10 25  4  0
 10 32  4  0
 11 20  4  0
 11 22  4  0
 11 30  1  0
 12 19  4  0
 13 14  4  0
 14 25  4  0
 15 21  1  0
 15 28  4  0
 16 26  3  0
 17 31  4  0
 18 34  4  0
 21 34  4  0
 22 29  4  0
 23 30  4  0
 27 29  4  0
 28 33  4  0
 30 33  4  0
M  END
$$$$

 Created by Python create_sdf_string function

 34 78  0  0  0  0  0  0  0  0999 V2000
   12.8139   -5.1573   21.0080 C   0  0  0  0  0  0  0  0  0  0  0  0
    8.5653   -7.4921   15.2052 C   0  0  0  0  0  0  0  0  0  0  0  0
   10.6164   -4.2232   19.8531 C   0  0  0  0  0  0  0  0  0  0  0  0
    3.0383   -9.3067   16.5051 C   0  0  0  0  0  0  0  0  0  0  0  0
   10.2862   -4.5160   20.6730 C   0  0  0  0  0  0  0  0  0  0  0  0
    9.2325   -3.8624   16.7337 C   0  0  0  0  0  0  0  0  0  0  0  0
   12.1532   -5.9581   22.2869 C   0  0  0  0  0  0  0  0  0  0  0  0
    4.2519  -10.1390   15.1912 C   0  0  0  0  0  0  0  0  0  0  0  0
    1.5472  -11.1662   19.1526 C   0  0  0  0  0  0  0  0  0  0  0  0
   11.4067   -4.5399   21.9439 F   0  0  0  0  0  0  0  0  0  0  0  0
    8.8394   -6.4065   16.8591 N   0  0  0  0  0  0  0  0  0  0  0  0
    8.2639   -6.5101   15.8223 C   0  0  0  0  0  0  0  0  0  0  0  0
   10.4921   -3.6800   22.3315 P   0  0  0  0  0  0  0  0  0  0  0  0
    2.1440  -10.2308   21.0802 C   0  0  0  0  0  0  0  0  0  0  0  0
    4.7470   -9.3990   16.5282 C   0  0  0  0  0  0  0  0  0  0  0  0
    0.1040  -11.2257   19.2539 C   0  0  0  0  0  0  0  0  0  0  0  0
    9.3986   -4.1660   16.2920 C   0  0  0  0  0  0  0  0  0  0  0  0
   12.7812   -5.3150   23.3367 O   0  0  0  0  0  0  0  0  0  0  0  0
   -0.1792  -12.3243   21.4609 C   0  0  0  0  0  0  0  0  0  0  0  0
    4.8237  -10.2616   17.7940 C   0  0  0  0  0  0  0  0  0  0  0  0
    0.2049  -10.9927   18.9367 C   0  0  0  0  0  0  0  0  0  0  0  0
    1.8930  -10.6835   18.3757 C   0  0  0  0  0  0  0  0  0  0  0  0
    6.9032   -8.3470   15.4410 C   0  0  0  0  0  0  0  0  0  0  0  0
   10.9187   -3.9897   18.3268 C   0  0  0  0  0  0  0  0  0  0  0  0
    3.8984  -10.5287   18.4902 N   0  0  0  0  0  0  0  0  0  0  0  0
    7.0124   -7.9840   17.1963 C   0  0  0  0  0  0  0  0  0  0  0  0
    1.4978  -12.7567   19.7371 He  0  0  0  0  0  0  0  0  0  0  0  0
   10.7728   -3.6064   19.2508 He  0  0  0  0  0  0  0  0  0  0  0  0
    8.3723   -6.0103   17.6110 He  0  0  0  0  0  0  0  0  0  0  0  0
    4.3420   -9.9474   17.2327 He  0  0  0  0  0  0  0  0  0  0  0  0
   13.4790   -5.7869   23.7950 He  0  0  0  0  0  0  0  0  0  0  0  0
    8.1881   -8.7277   18.2213 He  0  0  0  0  0  0  0  0  0  0  0  0
    2.0771   -8.8444   16.8570 He  0  0  0  0  0  0  0  0  0  0  0  0
   10.7910   -4.7636   17.1666 He  0  0  0  0  0  0  0  0  0  0  0  0
  1  3  2  0
  1  7  4  0
  1 21  1  0
  1 22  2  0
  2  3  1  0
  2 10  2  0
  2 12  4  0
  2 13  1  0
  2 19  4  0
  2 20  2  0
  2 22  1  0
  2 25  3  0
  2 26  3  0
  3  5  4  0
  3  6  2  0
  3 11  4  0
  3 25  4  0
  4 21  1  0
  4 23  4  0
  4 25  2  0
  5 13  4  0
  5 19  2  0
  6 10  4  0
  6 12  1  0
  6 17  4  0
  6 18  2  0
  6 19  2  0
  6 20  2  0
  6 21  3  0
  6 23  1  0
  6 26  3  0
  7 11  1  0
  7 13  2  0
  7 14  3  0
  7 18  2  0
  7 22  1  0
  8  9  4  0
  8 11  1  0
  8 22  4  0
  8 25  3  0
  9 14  1  0
  9 16  4  0
  9 22  1  0
 10 11  4  0
 10 12  1  0
 10 13  4  0
 10 18  1  0
 11 12  2  0
 11 16  2  0
 11 23  4  0
 12 13  4  0
 12 15  3  0
 12 19  1  0
 12 20  1  0
 12 23  4  0
 12 26  4  0
 13 16  3  0
 13 18  2  0
 14 18  3  0
 14 23  2  0
 14 25  1  0
 15 16  2  0
 15 17  2  0
 15 19  1  0
 15 20  2  0
 15 26  4  0
 16 17  1  0
 16 24  4  0
 18 20  3  0
 18 21  1  0
 18 22  3  0
 19 21  3  0
 20 25  3  0
 20 26  1  0
 21 26  1  0
 22 23  1  0
 22 25  4  0
 24 26  2  0
M  END
$$$$

 Created by Python create_sdf_string function

 34 34  0  0  0  0  0  0  0  0999 V2000
   12.5255   -5.2680   20.5916 C   0  0  0  0  0  0  0  0  0  0  0  0
    7.9189   -7.6909   15.1191 C   0  0  0  0  0  0  0  0  0  0  0  0
   11.2232   -4.5442   20.1168 C   0  0  0  0  0  0  0  0  0  0  0  0
    3.0122   -9.2727   16.3567 C   0  0  0  0  0  0  0  0  0  0  0  0
    1.1562  -12.2278   21.0245 C   0  0  0  0  0  0  0  0  0  0  0  0
   10.4631   -3.9823   20.8742 C   0  0  0  0  0  0  0  0  0  0  0  0
    9.4751   -4.1284   16.2183 C   0  0  0  0  0  0  0  0  0  0  0  0
   12.6458   -5.2603   21.6103 C   0  0  0  0  0  0  0  0  0  0  0  0
    4.6788   -9.0701   15.0458 C   0  0  0  0  0  0  0  0  0  0  0  0
   10.5645   -3.9367   18.1073 C   0  0  0  0  0  0  0  0  0  0  0  0
    1.4916  -11.0541   19.1094 C   0  0  0  0  0  0  0  0  0  0  0  0
   11.7830   -4.6923   22.5209 C   0  0  0  0  0  0  0  0  0  0  0  0
    8.5631   -6.7320   16.7993 C   0  0  0  0  0  0  0  0  0  0  0  0
    9.3477   -5.9708   17.4787 C   0  0  0  0  0  0  0  0  0  0  0  0
    4.3501   -9.3921   16.7939 N   0  0  0  0  0  0  0  0  0  0  0  0
   13.5620   -5.6975   23.7961 C   0  0  0  0  0  0  0  0  0  0  0  0
    8.2295   -6.8829   15.6901 C   0  0  0  0  0  0  0  0  0  0  0  0
    7.7281   -7.9896   17.6641 C   0  0  0  0  0  0  0  0  0  0  0  0
   10.7127   -3.9925   22.2892 C   0  0  0  0  0  0  0  0  0  0  0  0
    1.9129  -11.7903   20.2479 C   0  0  0  0  0  0  0  0  0  0  0  0
    5.5513   -8.9826   16.6120 C   0  0  0  0  0  0  0  0  0  0  0  0
    0.1540  -11.1045   18.9945 C   0  0  0  0  0  0  0  0  0  0  0  0
    2.0712   -9.7570   17.1048 N   0  0  0  0  0  0  0  0  0  0  0  0
    9.5604   -3.9968   16.3229 C   0  0  0  0  0  0  0  0  0  0  0  0
   10.0108   -5.3627   17.8830 N   0  0  0  0  0  0  0  0  0  0  0  0
   12.6132   -5.1223   23.3652 O   0  0  0  0  0  0  0  0  0  0  0  0
   -0.0541  -12.3368   20.8692 C   0  0  0  0  0  0  0  0  0  0  0  0
    4.7857   -9.9230   17.8807 C   0  0  0  0  0  0  0  0  0  0  0  0
   -0.5045  -11.7584   19.7753 C   0  0  0  0  0  0  0  0  0  0  0  0
    2.3911  -10.4501   18.2277 C   0  0  0  0  0  0  0  0  0  0  0  0
    6.9463   -8.2973   15.1938 C   0  0  0  0  0  0  0  0  0  0  0  0
   10.9310   -4.3403   18.4963 C   0  0  0  0  0  0  0  0  0  0  0  0
    3.7226  -10.4499   18.6065 N   0  0  0  0  0  0  0  0  0  0  0  0
    6.8409   -8.4027   16.9806 C   0  0  0  0  0  0  0  0  0  0  0  0
  1  3  4  0
  1  8  4  0
  2 17  4  0
  2 31  4  0
  3  6  4  0
  3 32  1  0
  4 15  4  0
  4 23  4  0
  5 20  4  0
  5 27  4  0
  6 19  4  0
  7 24  4  0
  8 12  4  0
 10 24  4  0
 10 32  4  0
 11 20  4  0
 11 22  4  0
 11 30  1  0
 12 19  4  0
 12 26  1  0
 13 14  4  0
 13 17  4  0
 13 18  4  0
 14 25  4  0
 15 21  1  0
 15 28  4  0
 16 26  1  0
 18 34  4  0
 21 34  4  0
 22 29  4  0
 23 30  4  0
 27 29  4  0
 28 33  4  0
 30 33  4  0
M  END
$$$$

 Created by Python create_sdf_string function

 34 90  0  0  0  0  0  0  0  0999 V2000
   12.3259   -5.1372   20.7357 C   0  0  0  0  0  0  0  0  0  0  0  0
   11.3145   -5.2845   19.8114 O   0  0  0  0  0  0  0  0  0  0  0  0
    3.2482   -9.1780   16.2434 C   0  0  0  0  0  0  0  0  0  0  0  0
    1.1370  -12.6961   21.2337 C   0  0  0  0  0  0  0  0  0  0  0  0
   10.1711   -4.6887   21.0735 C   0  0  0  0  0  0  0  0  0  0  0  0
    9.6412   -4.3370   16.1871 C   0  0  0  0  0  0  0  0  0  0  0  0
   12.3353   -6.3503   21.2030 C   0  0  0  0  0  0  0  0  0  0  0  0
    1.1745  -11.0144   18.8781 C   0  0  0  0  0  0  0  0  0  0  0  0
   12.6730   -5.5986   22.4321 N   0  0  0  0  0  0  0  0  0  0  0  0
    8.1996   -5.9437   16.4723 C   0  0  0  0  0  0  0  0  0  0  0  0
    8.5967   -5.5772   17.3235 C   0  0  0  0  0  0  0  0  0  0  0  0
    4.5232   -9.0794   17.0557 Cl  0  0  0  0  0  0  0  0  0  0  0  0
   14.0209   -5.4896   23.6094 C   0  0  0  0  0  0  0  0  0  0  0  0
    8.3640   -6.9504   15.6545 C   0  0  0  0  0  0  0  0  0  0  0  0
    7.5955   -7.8553   17.7215 C   0  0  0  0  0  0  0  0  0  0  0  0
    9.9361   -3.8099   21.0675 O   0  0  0  0  0  0  0  0  0  0  0  0
    2.2893  -12.3833   20.9495 C   0  0  0  0  0  0  0  0  0  0  0  0
    4.6995   -8.0393   17.0755 C   0  0  0  0  0  0  0  0  0  0  0  0
    0.0440  -10.8584   19.1160 C   0  0  0  0  0  0  0  0  0  0  0  0
    1.9272   -9.7292   17.6198 N   0  0  0  0  0  0  0  0  0  0  0  0
    9.2269   -4.3618   16.5166 C   0  0  0  0  0  0  0  0  0  0  0  0
   12.5446   -5.2069   23.3188 O   0  0  0  0  0  0  0  0  0  0  0  0
   -0.2384  -12.2307   20.4500 C   0  0  0  0  0  0  0  0  0  0  0  0
    5.0666  -10.0499   18.1605 C   0  0  0  0  0  0  0  0  0  0  0  0
   -0.5908  -11.6442   20.5124 C   0  0  0  0  0  0  0  0  0  0  0  0
   10.7401   -4.7670   18.6306 C   0  0  0  0  0  0  0  0  0  0  0  0
    4.0397  -10.0291   18.4810 N   0  0  0  0  0  0  0  0  0  0  0  0
    7.0507   -8.8926   16.4116 C   0  0  0  0  0  0  0  0  0  0  0  0
    8.4779   -7.5260   15.3811 He  0  0  0  0  0  0  0  0  0  0  0  0
    5.7293   -9.4507   14.5431 He  0  0  0  0  0  0  0  0  0  0  0  0
   10.4216   -4.1004   17.3695 He  0  0  0  0  0  0  0  0  0  0  0  0
    9.7148   -5.2149   18.5268 He  0  0  0  0  0  0  0  0  0  0  0  0
    2.4861  -10.4044   18.4739 He  0  0  0  0  0  0  0  0  0  0  0  0
    8.7286   -8.1160   15.3240 He  0  0  0  0  0  0  0  0  0  0  0  0
  1  2  4  0
  1  7  4  0
  1 10  1  0
  1 12  3  0
  1 15  2  0
  1 20  2  0
  1 28  2  0
  2  5  4  0
  2  8  1  0
  2 11  1  0
  2 16  2  0
  3 10  1  0
  3 11  2  0
  3 12  4  0
  3 16  2  0
  3 18  3  0
  3 20  1  0
  3 25  4  0
  4  8  1  0
  4 10  4  0
  4 11  4  0
  4 13  2  0
  4 16  2  0
  4 17  2  0
  4 21  1  0
  4 22  1  0
  4 25  2  0
  4 27  3  0
  5 11  3  0
  5 20  1  0
  6  7  1  0
  6 14  2  0
  6 15  1  0
  6 22  4  0
  7  9  4  0
  7 12  4  0
  7 13  2  0
  7 15  3  0
  7 17  4  0
  7 19  3  0
  7 23  2  0
  8 17  1  0
  8 19  3  0
  8 25  4  0
  9 10  3  0
  9 21  4  0
  9 22  4  0
  9 23  2  0
  9 27  4  0
 10 11  4  0
 10 14  4  0
 10 15  4  0
 10 19  1  0
 11 15  2  0
 11 19  2  0
 11 21  1  0
 11 24  2  0
 12 18  1  0
 12 22  2  0
 12 24  4  0
 12 27  2  0
 13 17  2  0
 13 19  4  0
 14 17  3  0
 14 21  2  0
 14 23  2  0
 15 25  3  0
 16 23  3  0
 16 24  4  0
 16 25  1  0
 16 26  4  0
 16 27  4  0
 16 28  4  0
 17 18  1  0
 17 25  3  0
 17 26  4  0
 18 26  4  0
 18 27  2  0
 19 23  1  0
 19 25  3  0
 19 28  2  0
 20 23  2  0
 20 25  4  0
 20 26  3  0
 22 23  1  0
 23 25  4  0
 23 27  3  0
 23 28  2  0
 24 26  3  0
 24 27  4  0
M  END
$$$$

 Created by Python create_sdf_string function

 34 35  0  0  0  0  0  0  0  0999 V2000
   12.5353   -5.3907   20.2768 C   0  0  0  0  0  0  0  0  0  0  0  0
    8.5034   -7.6982   14.8580 C   0  0  0  0  0  0  0  0  0  0  0  0
   11.5074   -4.9982   19.7205 C   0  0  0  0  0  0  0  0  0  0  0  0
    3.0277   -9.2597   16.6214 C   0  0  0  0  0  0  0  0  0  0  0  0
    1.1596  -12.4777   21.2586 C   0  0  0  0  0  0  0  0  0  0  0  0
   10.7292   -4.4016   21.3392 C   0  0  0  0  0  0  0  0  0  0  0  0
   10.0748   -3.8898   16.3194 C   0  0  0  0  0  0  0  0  0  0  0  0
   12.8470   -5.4059   21.4715 C   0  0  0  0  0  0  0  0  0  0  0  0
    5.4539   -9.1736   15.1390 O   0  0  0  0  0  0  0  0  0  0  0  0
   10.8066   -3.7564   17.6092 N   0  0  0  0  0  0  0  0  0  0  0  0
    1.4844  -11.2049   19.2899 C   0  0  0  0  0  0  0  0  0  0  0  0
   12.0787   -5.0599   22.2627 C   0  0  0  0  0  0  0  0  0  0  0  0
    8.3341   -6.5073   16.7455 C   0  0  0  0  0  0  0  0  0  0  0  0
    9.1028   -5.4674   17.2577 C   0  0  0  0  0  0  0  0  0  0  0  0
    4.2698   -9.2635   17.1312 C   0  0  0  0  0  0  0  0  0  0  0  0
   13.9592   -5.6011   23.8320 C   0  0  0  0  0  0  0  0  0  0  0  0
    8.6197   -6.7492   15.5651 C   0  0  0  0  0  0  0  0  0  0  0  0
    7.2933   -7.4489   17.1445 C   0  0  0  0  0  0  0  0  0  0  0  0
   10.5114   -4.2344   21.2691 C   0  0  0  0  0  0  0  0  0  0  0  0
    1.9919  -11.9885   20.3014 C   0  0  0  0  0  0  0  0  0  0  0  0
    4.9904   -8.3600   16.5192 C   0  0  0  0  0  0  0  0  0  0  0  0
    0.1891  -11.0282   19.1497 C   0  0  0  0  0  0  0  0  0  0  0  0
    2.1459   -9.8412   17.3497 N   0  0  0  0  0  0  0  0  0  0  0  0
    9.4974   -4.4948   16.5787 C   0  0  0  0  0  0  0  0  0  0  0  0
    9.5406   -5.4029   18.4835 C   0  0  0  0  0  0  0  0  0  0  0  0
   12.6237   -5.2240   23.5346 O   0  0  0  0  0  0  0  0  0  0  0  0
   -0.1074  -12.2385   21.0449 C   0  0  0  0  0  0  0  0  0  0  0  0
    4.6819   -9.9540   18.0651 C   0  0  0  0  0  0  0  0  0  0  0  0
   -0.6344  -11.5793   20.0952 C   0  0  0  0  0  0  0  0  0  0  0  0
    2.5066  -10.5404   18.4051 C   0  0  0  0  0  0  0  0  0  0  0  0
    7.8495   -8.4593   15.1569 C   0  0  0  0  0  0  0  0  0  0  0  0
   10.5869   -4.5555   18.7780 C   0  0  0  0  0  0  0  0  0  0  0  0
    3.7730  -10.6081   18.8079 N   0  0  0  0  0  0  0  0  0  0  0  0
    6.7456   -8.3120   16.2066 C   0  0  0  0  0  0  0  0  0  0  0  0
  1  3  4  0
  1  8  4  0
  2 17  4  0
  2 31  4  0
  3 32  1  0
  4 15  4  0
  4 23  4  0
  5 20  4  0
  5 27  4  0
  6 12  4  0
  6 19  4  0
  7 10  4  0
  7 24  4  0
  8 12  4  0
 10 32  4  0
 11 20  4  0
 11 22  4  0
 11 30  1  0
 12 26  1  0
 13 14  4  0
 13 17  4  0
 13 18  4  0
 14 24  4  0
 14 25  4  0
 15 21  1  0
 15 28  4  0
 16 26  1  0
 18 34  4  0
 22 29  4  0
 23 30  4  0
 25 32  4  0
 27 29  4  0
 28 33  4  0
 30 33  4  0
 31 34  4  0
M  END
$$$$

 Created by Python create_sdf_string function

 34 92  0  0  0  0  0  0  0  0999 V2000
   12.9890   -5.4895   20.3524 C   0  0  0  0  0  0  0  0  0  0  0  0
    9.1932   -7.2974   15.2606 C   0  0  0  0  0  0  0  0  0  0  0  0
    2.9681   -9.4002   16.5589 P   0  0  0  0  0  0  0  0  0  0  0  0
   10.5306   -4.5476   21.1695 C   0  0  0  0  0  0  0  0  0  0  0  0
   12.5593   -5.1599   20.8670 C   0  0  0  0  0  0  0  0  0  0  0  0
    1.4412  -11.5021   19.5359 C   0  0  0  0  0  0  0  0  0  0  0  0
   12.1441   -4.9359   22.6848 C   0  0  0  0  0  0  0  0  0  0  0  0
    8.3211   -5.8257   17.0198 C   0  0  0  0  0  0  0  0  0  0  0  0
    8.0412   -5.1332   17.0161 C   0  0  0  0  0  0  0  0  0  0  0  0
    3.5983   -9.5564   17.7325 C   0  0  0  0  0  0  0  0  0  0  0  0
   13.7147   -5.7453   22.5357 F   0  0  0  0  0  0  0  0  0  0  0  0
    9.5741   -6.8478   15.0751 C   0  0  0  0  0  0  0  0  0  0  0  0
    7.3487   -7.1768   16.5151 N   0  0  0  0  0  0  0  0  0  0  0  0
   10.5364   -4.1617   21.0925 C   0  0  0  0  0  0  0  0  0  0  0  0
    1.6347  -11.9021   19.1955 O   0  0  0  0  0  0  0  0  0  0  0  0
    5.3033   -8.8470   16.4304 C   0  0  0  0  0  0  0  0  0  0  0  0
    0.3735  -11.3514   18.9189 C   0  0  0  0  0  0  0  0  0  0  0  0
    2.2554   -9.1464   17.2900 N   0  0  0  0  0  0  0  0  0  0  0  0
    9.5697   -4.2280   16.5591 C   0  0  0  0  0  0  0  0  0  0  0  0
   10.2881   -5.8546   18.6158 C   0  0  0  0  0  0  0  0  0  0  0  0
   12.8805   -5.0806   23.8233 O   0  0  0  0  0  0  0  0  0  0  0  0
   -0.0982  -12.4485   21.1729 C   0  0  0  0  0  0  0  0  0  0  0  0
    4.8816   -9.5927   18.0173 C   0  0  0  0  0  0  0  0  0  0  0  0
   -1.2891  -12.1395   20.3673 N   0  0  0  0  0  0  0  0  0  0  0  0
    2.0496  -10.5543   18.6970 F   0  0  0  0  0  0  0  0  0  0  0  0
    7.9803   -9.1113   15.4412 C   0  0  0  0  0  0  0  0  0  0  0  0
   10.6970   -4.6364   18.8264 C   0  0  0  0  0  0  0  0  0  0  0  0
    4.0844  -10.5615   18.7999 N   0  0  0  0  0  0  0  0  0  0  0  0
    6.5175   -7.8064   17.2884 C   0  0  0  0  0  0  0  0  0  0  0  0
   11.4454   -4.4316   20.3128 He  0  0  0  0  0  0  0  0  0  0  0  0
    1.3450  -12.5184   21.0562 He  0  0  0  0  0  0  0  0  0  0  0  0
    9.6335   -3.3387   15.7784 He  0  0  0  0  0  0  0  0  0  0  0  0
    4.5440   -8.4675   15.8971 He  0  0  0  0  0  0  0  0  0  0  0  0
   10.7210   -2.8361   17.5901 He  0  0  0  0  0  0  0  0  0  0  0  0
  1  5  4  0
  1  9  2  0
  1 15  2  0
  1 20  2  0
  2  6  2  0
  2  8  4  0
  2 10  4  0
  2 12  4  0
  2 15  3  0
  2 19  4  0
  2 26  4  0
  2 29  3  0
  3 10  4  0
  3 14  3  0
  3 18  4  0
  3 24  4  0
  3 29  4  0
  4  6  3  0
  4  7  1  0
  4  8  3  0
  4 10  2  0
  4 14  4  0
  4 19  1  0
  4 22  3  0
  4 24  4  0
  5  7  4  0
  5  8  1  0
  5  9  1  0
  5 13  3  0
  5 20  3  0
  5 28  4  0
  5 29  1  0
  6  7  4  0
  6 11  1  0
  6 14  3  0
  6 17  4  0
  6 25  1  0
  7 14  3  0
  7 19  4  0
  7 27  3  0
  7 28  2  0
  8 10  1  0
  8 12  4  0
  8 17  2  0
  8 23  1  0
  8 24  2  0
  9 13  1  0
  9 18  3  0
  9 19  4  0
  9 20  2  0
 10 11  1  0
 10 12  2  0
 10 13  3  0
 10 16  1  0
 10 23  2  0
 11 18  3  0
 11 21  1  0
 11 24  3  0
 11 25  3  0
 11 26  2  0
 11 28  4  0
 11 29  1  0
 12 14  4  0
 12 17  1  0
 12 25  3  0
 12 27  3  0
 13 18  3  0
 13 20  1  0
 13 27  3  0
 13 29  2  0
 14 17  3  0
 14 18  3  0
 14 20  3  0
 15 17  2  0
 15 29  3  0
 16 19  2  0
 16 25  2  0
 17 18  3  0
 17 26  1  0
 17 27  4  0
 18 22  3  0
 18 27  4  0
 18 29  2  0
 19 20  3  0
 20 26  1  0
 20 27  4  0
 21 24  4  0
 23 28  1  0
 24 27  1  0
 25 26  4  0
 26 27  4  0
 26 29  4  0
M  END
$$$$

 Created by Python create_sdf_string function

 34 38  0  0  0  0  0  0  0  0999 V2000
   12.4559   -5.1823   20.1393 C   0  0  0  0  0  0  0  0  0  0  0  0
    8.5817   -8.1458   15.0010 C   0  0  0  0  0  0  0  0  0  0  0  0
   11.3328   -4.6011   19.9089 C   0  0  0  0  0  0  0  0  0  0  0  0
    2.8135   -9.2499   16.7265 C   0  0  0  0  0  0  0  0  0  0  0  0
    1.1110  -12.5943   21.1554 C   0  0  0  0  0  0  0  0  0  0  0  0
   10.8119   -4.2174   21.9327 C   0  0  0  0  0  0  0  0  0  0  0  0
   10.2424   -3.3370   16.5804 N   0  0  0  0  0  0  0  0  0  0  0  0
   12.9361   -5.2463   21.2865 C   0  0  0  0  0  0  0  0  0  0  0  0
    4.9577   -8.2271   15.7151 O   0  0  0  0  0  0  0  0  0  0  0  0
   10.9434   -3.4211   17.8733 C   0  0  0  0  0  0  0  0  0  0  0  0
    1.3766  -11.3493   19.2461 C   0  0  0  0  0  0  0  0  0  0  0  0
   11.9217   -4.7282   22.3621 C   0  0  0  0  0  0  0  0  0  0  0  0
    8.4082   -6.3870   16.5076 C   0  0  0  0  0  0  0  0  0  0  0  0
    9.1460   -5.3590   17.1788 C   0  0  0  0  0  0  0  0  0  0  0  0
    4.1073   -9.3173   17.1899 C   0  0  0  0  0  0  0  0  0  0  0  0
   13.8569   -5.5790   22.5642 F   0  0  0  0  0  0  0  0  0  0  0  0
    8.8954   -7.0270   15.3847 C   0  0  0  0  0  0  0  0  0  0  0  0
    7.1154   -7.0162   17.0370 N   0  0  0  0  0  0  0  0  0  0  0  0
   10.5849   -4.1044   21.3273 C   0  0  0  0  0  0  0  0  0  0  0  0
    1.9127  -12.0211   20.1996 C   0  0  0  0  0  0  0  0  0  0  0  0
    5.1363   -8.6711   16.6676 C   0  0  0  0  0  0  0  0  0  0  0  0
    0.0255  -11.2785   19.1906 C   0  0  0  0  0  0  0  0  0  0  0  0
    1.9127   -9.9339   17.4173 N   0  0  0  0  0  0  0  0  0  0  0  0
    9.3524   -4.1263   16.3443 C   0  0  0  0  0  0  0  0  0  0  0  0
    9.8983   -5.4651   18.2779 C   0  0  0  0  0  0  0  0  0  0  0  0
   12.8351   -5.1152   23.6302 O   0  0  0  0  0  0  0  0  0  0  0  0
   -0.2110  -12.4893   21.0690 C   0  0  0  0  0  0  0  0  0  0  0  0
    4.5990   -9.9658   18.1841 N   0  0  0  0  0  0  0  0  0  0  0  0
   -0.7368  -11.8558   20.1509 C   0  0  0  0  0  0  0  0  0  0  0  0
    2.2694  -10.6858   18.4242 C   0  0  0  0  0  0  0  0  0  0  0  0
    7.5089   -8.6523   15.5205 C   0  0  0  0  0  0  0  0  0  0  0  0
   10.7569   -4.5288   18.6930 C   0  0  0  0  0  0  0  0  0  0  0  0
    3.6855  -10.6693   18.8080 N   0  0  0  0  0  0  0  0  0  0  0  0
    6.7752   -8.0845   16.4712 C   0  0  0  0  0  0  0  0  0  0  0  0
  1  3  4  0
  1  8  4  0
  2 17  4  0
  2 31  4  0
  3 19  4  0
  3 32  1  0
  4 15  4  0
  4 23  4  0
  5 20  4  0
  5 27  4  0
  6 12  4  0
  6 19  4  0
  7 10  4  0
  7 24  4  0
  8 12  4  0
  9 21  2  0
 10 32  4  0
 11 20  4  0
 11 22  4  0
 11 30  1  0
 12 26  1  0
 13 14  1  0
 13 17  4  0
 13 18  4  0
 14 24  4  0
 14 25  4  0
 15 21  1  0
 15 28  4  0
 16 26  1  0
 18 34  4  0
 21 34  1  0
 22 29  4  0
 23 30  4  0
 25 32  4  0
 27 29  4  0
 28 33  4  0
 30 33  4  0
 31 34  4  0
M  END
$$$$

 Created by Python create_sdf_string function

 34 65  0  0  0  0  0  0  0  0999 V2000
   12.3883   -4.8098   20.3024 C   0  0  0  0  0  0  0  0  0  0  0  0
    8.5629   -8.6877   15.2268 O   0  0  0  0  0  0  0  0  0  0  0  0
    2.6347   -9.0945   17.0111 C   0  0  0  0  0  0  0  0  0  0  0  0
   10.8202   -4.3716   21.6142 C   0  0  0  0  0  0  0  0  0  0  0  0
   11.3036   -2.4769   17.0285 N   0  0  0  0  0  0  0  0  0  0  0  0
   13.5414   -4.6051   21.1731 C   0  0  0  0  0  0  0  0  0  0  0  0
    4.5722   -8.5937   15.1713 C   0  0  0  0  0  0  0  0  0  0  0  0
    1.4020  -10.9855   19.1725 C   0  0  0  0  0  0  0  0  0  0  0  0
   11.6730   -4.9496   22.5327 C   0  0  0  0  0  0  0  0  0  0  0  0
    9.7591   -4.6387   17.7690 F   0  0  0  0  0  0  0  0  0  0  0  0
    4.1337   -9.3629   15.8613 N   0  0  0  0  0  0  0  0  0  0  0  0
   14.0083   -4.8250   23.5904 N   0  0  0  0  0  0  0  0  0  0  0  0
    8.8965   -6.3159   16.1751 C   0  0  0  0  0  0  0  0  0  0  0  0
    2.6016  -11.8762   19.6091 C   0  0  0  0  0  0  0  0  0  0  0  0
    4.9958   -8.6254   17.4622 C   0  0  0  0  0  0  0  0  0  0  0  0
   -0.2438  -10.9645   19.2651 C   0  0  0  0  0  0  0  0  0  0  0  0
    1.7319   -9.6399   17.2040 N   0  0  0  0  0  0  0  0  0  0  0  0
    9.3776   -4.2585   16.2179 N   0  0  0  0  0  0  0  0  0  0  0  0
   10.2214   -5.3598   18.1799 C   0  0  0  0  0  0  0  0  0  0  0  0
   12.7711   -4.8402   23.8047 O   0  0  0  0  0  0  0  0  0  0  0  0
   -0.6222  -12.3654   20.8402 C   0  0  0  0  0  0  0  0  0  0  0  0
    4.3707   -9.9969   18.0154 N   0  0  0  0  0  0  0  0  0  0  0  0
    2.2953  -10.6449   18.4345 C   0  0  0  0  0  0  0  0  0  0  0  0
    7.3514   -8.9607   14.3427 C   0  0  0  0  0  0  0  0  0  0  0  0
    3.5928  -10.6313   19.3540 N   0  0  0  0  0  0  0  0  0  0  0  0
    6.7946   -7.5911   16.8756 C   0  0  0  0  0  0  0  0  0  0  0  0
   12.1718   -4.6945   20.9338 He  0  0  0  0  0  0  0  0  0  0  0  0
    1.9389  -12.8524   21.0244 He  0  0  0  0  0  0  0  0  0  0  0  0
   10.6563   -3.3010   17.9293 He  0  0  0  0  0  0  0  0  0  0  0  0
    7.9058   -5.6110   16.9381 He  0  0  0  0  0  0  0  0  0  0  0  0
    6.4367   -6.7002   16.9596 He  0  0  0  0  0  0  0  0  0  0  0  0
   10.3473   -3.7126   21.6259 He  0  0  0  0  0  0  0  0  0  0  0  0
   -1.2117  -12.2289   19.8324 He  0  0  0  0  0  0  0  0  0  0  0  0
   10.3117   -4.5448   18.3477 He  0  0  0  0  0  0  0  0  0  0  0  0
  1  2  1  0
  1  4  3  0
  1  9  4  0
  2  4  2  0
  2  9  2  0
  2 12  3  0
  2 13  1  0
  2 26  3  0
  3 10  2  0
  3 17  4  0
  4  6  2  0
  4  8  4  0
  4  9  4  0
  4 14  4  0
  4 17  4  0
  4 19  2  0
  5  7  4  0
  5 18  4  0
  5 19  4  0
  5 21  2  0
  5 22  2  0
  6 10  1  0
  6 13  2  0
  8 11  3  0
  8 14  3  0
  8 16  4  0
  8 17  4  0
  8 20  3  0
  8 23  1  0
  8 24  4  0
  9 11  1  0
  9 13  2  0
  9 22  2  0
  9 24  1  0
 10 16  4  0
 10 18  1  0
 10 19  3  0
 10 22  4  0
 10 24  4  0
 11 13  4  0
 11 14  1  0
 11 15  1  0
 11 19  4  0
 12 25  4  0
 13 15  4  0
 13 25  1  0
 14 20  4  0
 14 21  2  0
 14 23  4  0
 15 18  3  0
 15 26  3  0
 16 17  3  0
 16 18  3  0
 16 19  3  0
 17 20  3  0
 17 23  4  0
 17 26  2  0
 19 23  2  0
 19 24  2  0
 20 26  2  0
 21 24  3  0
 22 25  4  0
 22 26  2  0
 23 25  4  0
 24 26  1  0
M  END
$$$$

 Created by Python create_sdf_string function

 34 36  0  0  0  0  0  0  0  0999 V2000
   12.6391   -4.9472   20.4332 C   0  0  0  0  0  0  0  0  0  0  0  0
    8.2741   -8.2269   15.4334 C   0  0  0  0  0  0  0  0  0  0  0  0
   11.3320   -4.4468   20.1315 C   0  0  0  0  0  0  0  0  0  0  0  0
    2.6488   -9.2193   16.6830 C   0  0  0  0  0  0  0  0  0  0  0  0
    1.0543  -12.7121   21.0617 C   0  0  0  0  0  0  0  0  0  0  0  0
   11.0346   -4.2905   22.4550 C   0  0  0  0  0  0  0  0  0  0  0  0
   10.6189   -3.2601   16.8402 N   0  0  0  0  0  0  0  0  0  0  0  0
   13.3023   -4.9980   21.3288 C   0  0  0  0  0  0  0  0  0  0  0  0
    5.2996   -8.3144   15.6033 C   0  0  0  0  0  0  0  0  0  0  0  0
   11.1751   -3.2643   18.0481 C   0  0  0  0  0  0  0  0  0  0  0  0
    1.4270  -11.2941   19.1816 C   0  0  0  0  0  0  0  0  0  0  0  0
   12.1932   -4.6741   22.5492 C   0  0  0  0  0  0  0  0  0  0  0  0
    8.3920   -6.0558   16.7876 O   0  0  0  0  0  0  0  0  0  0  0  0
    9.3994   -5.2551   17.1635 C   0  0  0  0  0  0  0  0  0  0  0  0
    3.8832   -9.0501   16.7550 N   0  0  0  0  0  0  0  0  0  0  0  0
   14.0678   -5.0151   23.8438 C   0  0  0  0  0  0  0  0  0  0  0  0
    8.6087   -7.0120   15.8390 C   0  0  0  0  0  0  0  0  0  0  0  0
    6.1734   -7.2026   17.0117 C   0  0  0  0  0  0  0  0  0  0  0  0
   10.5244   -4.1019   21.1611 C   0  0  0  0  0  0  0  0  0  0  0  0
    1.9147  -12.0549   20.2127 C   0  0  0  0  0  0  0  0  0  0  0  0
    5.1376   -8.4289   16.4782 C   0  0  0  0  0  0  0  0  0  0  0  0
    0.0087  -11.2028   19.0939 C   0  0  0  0  0  0  0  0  0  0  0  0
    1.8712   -9.8055   17.2759 N   0  0  0  0  0  0  0  0  0  0  0  0
    9.6576   -4.1875   16.4257 N   0  0  0  0  0  0  0  0  0  0  0  0
   10.0336   -5.4183   18.4309 C   0  0  0  0  0  0  0  0  0  0  0  0
   12.8012   -4.8862   23.7518 O   0  0  0  0  0  0  0  0  0  0  0  0
   -0.3011  -12.5721   20.9254 C   0  0  0  0  0  0  0  0  0  0  0  0
    4.4053  -10.0032   18.1083 N   0  0  0  0  0  0  0  0  0  0  0  0
   -0.7757  -11.8407   19.9897 C   0  0  0  0  0  0  0  0  0  0  0  0
    2.2191  -10.5789   18.3612 C   0  0  0  0  0  0  0  0  0  0  0  0
    7.2609   -8.7465   15.3230 C   0  0  0  0  0  0  0  0  0  0  0  0
   10.9213   -4.3372   18.8281 C   0  0  0  0  0  0  0  0  0  0  0  0
    3.6573  -10.5877   18.6351 N   0  0  0  0  0  0  0  0  0  0  0  0
    6.6789   -7.3431   16.6675 C   0  0  0  0  0  0  0  0  0  0  0  0
  1  3  4  0
  1  8  4  0
  2 17  4  0
  2 31  4  0
  3 19  4  0
  3 32  1  0
  4 15  4  0
  4 23  4  0
  5 20  4  0
  5 27  4  0
  6 12  4  0
  6 19  4  0
  7 10  4  0
  7 24  4  0
  8 12  4  0
  9 18  4  0
  9 21  4  0
 10 32  4  0
 11 20  4  0
 11 22  4  0
 11 30  1  0
 12 26  1  0
 13 14  1  0
 13 17  1  0
 14 24  4  0
 14 25  4  0
 15 21  1  0
 15 28  4  0
 16 26  1  0
 18 34  4  0
 22 29  4  0
 23 30  4  0
 25 32  4  0
 27 29  4  0
 28 33  4  0
 30 33  4  0
M  END
$$$$

 Created by Python create_sdf_string function

 34 87  0  0  0  0  0  0  0  0999 V2000
   12.6230   -5.1633   20.5051 C   0  0  0  0  0  0  0  0  0  0  0  0
   11.8964   -3.9914   19.8845 C   0  0  0  0  0  0  0  0  0  0  0  0
    2.7213   -9.3570   16.6970 C   0  0  0  0  0  0  0  0  0  0  0  0
   11.0644   -4.3221   22.3781 N   0  0  0  0  0  0  0  0  0  0  0  0
   11.5295   -3.4370   15.3868 N   0  0  0  0  0  0  0  0  0  0  0  0
   13.3642   -4.7953   22.0127 C   0  0  0  0  0  0  0  0  0  0  0  0
    4.9410   -7.9580   16.5399 C   0  0  0  0  0  0  0  0  0  0  0  0
    1.1134  -11.1554   18.5799 C   0  0  0  0  0  0  0  0  0  0  0  0
   12.7187   -3.5489   22.1098 F   0  0  0  0  0  0  0  0  0  0  0  0
    7.9193   -6.1260   16.9709 O   0  0  0  0  0  0  0  0  0  0  0  0
    4.3539   -8.2993   16.1872 N   0  0  0  0  0  0  0  0  0  0  0  0
   13.8772   -4.4104   24.2850 C   0  0  0  0  0  0  0  0  0  0  0  0
    8.8234   -6.6982   15.6708 C   0  0  0  0  0  0  0  0  0  0  0  0
    5.7857   -7.1848   16.8936 O   0  0  0  0  0  0  0  0  0  0  0  0
   10.5386   -4.0914   21.2156 C   0  0  0  0  0  0  0  0  0  0  0  0
    1.6543  -11.9907   20.2187 C   0  0  0  0  0  0  0  0  0  0  0  0
    6.2747   -8.4969   15.7537 O   0  0  0  0  0  0  0  0  0  0  0  0
   -0.0706  -11.2140   18.8976 C   0  0  0  0  0  0  0  0  0  0  0  0
    2.1233   -9.5557   17.9288 N   0  0  0  0  0  0  0  0  0  0  0  0
    9.5551   -3.8525   16.4655 N   0  0  0  0  0  0  0  0  0  0  0  0
    9.4332   -5.0550   18.9193 C   0  0  0  0  0  0  0  0  0  0  0  0
   12.9909   -4.5001   23.9651 O   0  0  0  0  0  0  0  0  0  0  0  0
   -0.0474  -12.6456   20.6892 C   0  0  0  0  0  0  0  0  0  0  0  0
   -0.7393  -11.4634   20.4251 O   0  0  0  0  0  0  0  0  0  0  0  0
    2.0486  -10.4817   18.4469 C   0  0  0  0  0  0  0  0  0  0  0  0
    7.7951   -8.7952   15.5627 C   0  0  0  0  0  0  0  0  0  0  0  0
    4.0165  -10.7434   18.5198 N   0  0  0  0  0  0  0  0  0  0  0  0
    6.1804   -7.3799   16.0162 B   0  0  0  0  0  0  0  0  0  0  0  0
    8.3035   -8.3812   15.9692 He  0  0  0  0  0  0  0  0  0  0  0  0
    1.4782  -12.6078   21.4162 He  0  0  0  0  0  0  0  0  0  0  0  0
   11.8514   -3.9136   18.6346 He  0  0  0  0  0  0  0  0  0  0  0  0
    9.5636   -5.0564   17.4029 He  0  0  0  0  0  0  0  0  0  0  0  0
    4.4796  -10.2874   18.2121 He  0  0  0  0  0  0  0  0  0  0  0  0
   10.9892   -4.2533   18.7547 He  0  0  0  0  0  0  0  0  0  0  0  0
  1  2  1  0
  1  4  2  0
  1  6  4  0
  1  9  3  0
  1 10  1  0
  1 19  1  0
  1 22  2  0
  1 23  4  0
  1 26  1  0
  2  4  1  0
  2  8  1  0
  2 11  1  0
  2 15  4  0
  3  5  2  0
  3  9  1  0
  3 11  4  0
  3 19  4  0
  4  5  3  0
  4  9  2  0
  4 13  2  0
  4 16  1  0
  4 21  2  0
  4 26  4  0
  5  6  3  0
  5  7  4  0
  5 14  2  0
  5 15  1  0
  5 16  4  0
  5 20  4  0
  5 21  3  0
  5 27  4  0
  5 28  2  0
  6  9  4  0
  6 18  1  0
  6 25  4  0
  6 27  2  0
  7 12  2  0
  7 14  4  0
  7 17  4  0
  7 18  4  0
  8 12  4  0
  8 13  1  0
  8 15  1  0
  8 16  4  0
  8 18  4  0
  8 24  4  0
  8 25  1  0
  8 28  1  0
  9 11  3  0
  9 13  1  0
  9 15  3  0
  9 16  2  0
  9 18  4  0
  9 20  3  0
  9 27  4  0
 10 14  2  0
 10 16  1  0
 11 17  1  0
 11 20  4  0
 11 22  2  0
 11 25  2  0
 11 27  1  0
 12 14  1  0
 12 22  1  0
 12 25  2  0
 13 26  2  0
 13 27  4  0
 14 16  4  0
 14 17  3  0
 14 22  1  0
 15 19  3  0
 16 18  2  0
 16 20  1  0
 16 21  3  0
 17 19  4  0
 17 28  3  0
 18 24  4  0
 19 22  1  0
 19 24  1  0
 19 25  4  0
 19 28  4  0
 23 25  2  0
 23 28  2  0
 24 27  1  0
 25 27  4  0
 26 27  3  0
 27 28  4  0
M  END
$$$$

 Created by Python create_sdf_string function

 34 36  0  0  0  0  0  0  0  0999 V2000
   12.8174   -4.8482   20.3523 C   0  0  0  0  0  0  0  0  0  0  0  0
    8.3322   -8.3874   15.8291 C   0  0  0  0  0  0  0  0  0  0  0  0
   11.4831   -4.3782   20.1848 C   0  0  0  0  0  0  0  0  0  0  0  0
    3.0123   -9.1982   16.8374 C   0  0  0  0  0  0  0  0  0  0  0  0
    1.0971  -12.4957   21.2144 C   0  0  0  0  0  0  0  0  0  0  0  0
   11.2312   -4.0117   22.5282 N   0  0  0  0  0  0  0  0  0  0  0  0
   11.1458   -3.5910   16.5200 N   0  0  0  0  0  0  0  0  0  0  0  0
   13.3258   -4.8469   21.6797 C   0  0  0  0  0  0  0  0  0  0  0  0
    5.1513   -8.2996   16.4610 C   0  0  0  0  0  0  0  0  0  0  0  0
   11.6290   -3.7717   17.7796 N   0  0  0  0  0  0  0  0  0  0  0  0
    1.4350  -11.2252   19.2109 C   0  0  0  0  0  0  0  0  0  0  0  0
   12.4698   -4.3930   22.5859 C   0  0  0  0  0  0  0  0  0  0  0  0
    8.3145   -5.7119   16.7305 O   0  0  0  0  0  0  0  0  0  0  0  0
    9.4324   -4.9538   17.1643 C   0  0  0  0  0  0  0  0  0  0  0  0
    3.9905   -8.8322   16.7802 N   0  0  0  0  0  0  0  0  0  0  0  0
   14.0521   -4.4236   24.2231 C   0  0  0  0  0  0  0  0  0  0  0  0
    8.2241   -6.6512   16.1221 C   0  0  0  0  0  0  0  0  0  0  0  0
    5.7107   -7.2364   16.7763 C   0  0  0  0  0  0  0  0  0  0  0  0
   10.6981   -4.0082   21.2106 C   0  0  0  0  0  0  0  0  0  0  0  0
    1.9443  -12.0436   20.2593 C   0  0  0  0  0  0  0  0  0  0  0  0
    6.1099   -8.9764   15.6694 C   0  0  0  0  0  0  0  0  0  0  0  0
    0.0789  -11.1091   19.1088 C   0  0  0  0  0  0  0  0  0  0  0  0
    2.0671   -9.7627   17.3578 N   0  0  0  0  0  0  0  0  0  0  0  0
   10.0434   -4.1802   16.2808 N   0  0  0  0  0  0  0  0  0  0  0  0
    9.8035   -4.9984   18.5098 C   0  0  0  0  0  0  0  0  0  0  0  0
   12.9355   -4.2617   23.8573 O   0  0  0  0  0  0  0  0  0  0  0  0
   -0.2301  -12.3269   21.0706 C   0  0  0  0  0  0  0  0  0  0  0  0
    4.4821  -10.1444   18.0638 N   0  0  0  0  0  0  0  0  0  0  0  0
   -0.6808  -11.6834   20.0637 C   0  0  0  0  0  0  0  0  0  0  0  0
    2.3274  -10.6138   18.3653 C   0  0  0  0  0  0  0  0  0  0  0  0
    7.6916   -8.7822   15.5633 C   0  0  0  0  0  0  0  0  0  0  0  0
   10.9697   -4.3621   18.8227 C   0  0  0  0  0  0  0  0  0  0  0  0
    3.7150  -10.7105   18.5604 N   0  0  0  0  0  0  0  0  0  0  0  0
    6.9226   -6.9270   16.2935 C   0  0  0  0  0  0  0  0  0  0  0  0
  1  3  4  0
  1  8  4  0
  2 31  4  0
  3 19  4  0
  3 32  1  0
  4 15  4  0
  4 23  4  0
  5 20  4  0
  5 27  4  0
  6 12  4  0
  6 19  4  0
  7 10  4  0
  7 24  4  0
  8 12  4  0
  9 15  1  0
  9 18  4  0
  9 21  4  0
 10 32  4  0
 11 20  4  0
 11 22  4  0
 11 30  1  0
 12 26  1  0
 13 14  1  0
 13 17  1  0
 14 24  4  0
 14 25  4  0
 16 26  1  0
 17 34  1  0
 18 34  4  0
 21 31  4  0
 22 29  4  0
 23 30  4  0
 25 32  4  0
 27 29  4  0
 28 33  4  0
 30 33  4  0
M  END
$$$$

 Created by Python create_sdf_string function

 34 73  0  0  0  0  0  0  0  0999 V2000
   12.2533   -4.8324   20.5787 C   0  0  0  0  0  0  0  0  0  0  0  0
    8.0713   -8.2242   15.3255 C   0  0  0  0  0  0  0  0  0  0  0  0
   11.0781   -3.4133   20.5665 C   0  0  0  0  0  0  0  0  0  0  0  0
    3.0908   -9.2584   17.1362 C   0  0  0  0  0  0  0  0  0  0  0  0
    0.7988  -12.4530   21.1663 C   0  0  0  0  0  0  0  0  0  0  0  0
   11.0525   -4.3865   22.5230 N   0  0  0  0  0  0  0  0  0  0  0  0
   11.2728   -4.4698   16.0600 P   0  0  0  0  0  0  0  0  0  0  0  0
   11.4691   -3.5456   18.2106 N   0  0  0  0  0  0  0  0  0  0  0  0
    1.5501  -10.9777   19.2069 C   0  0  0  0  0  0  0  0  0  0  0  0
   12.6310   -5.2025   22.4568 F   0  0  0  0  0  0  0  0  0  0  0  0
    8.4600   -5.9525   17.4420 O   0  0  0  0  0  0  0  0  0  0  0  0
    3.7509   -8.6022   16.0605 O   0  0  0  0  0  0  0  0  0  0  0  0
    8.1819   -6.5951   16.2834 Cl  0  0  0  0  0  0  0  0  0  0  0  0
   11.3806   -4.1598   20.7740 C   0  0  0  0  0  0  0  0  0  0  0  0
    2.4328  -11.7477   20.1232 C   0  0  0  0  0  0  0  0  0  0  0  0
    6.1508   -9.1949   15.5624 F   0  0  0  0  0  0  0  0  0  0  0  0
   10.0085   -4.3612   16.0693 O   0  0  0  0  0  0  0  0  0  0  0  0
   13.1430   -4.2823   23.6085 O   0  0  0  0  0  0  0  0  0  0  0  0
   -0.2284  -12.4970   21.2512 C   0  0  0  0  0  0  0  0  0  0  0  0
    4.2883  -10.3440   17.8822 N   0  0  0  0  0  0  0  0  0  0  0  0
   -0.8636  -10.8032   18.9130 C   0  0  0  0  0  0  0  0  0  0  0  0
    2.5481  -10.6701   18.2488 C   0  0  0  0  0  0  0  0  0  0  0  0
    7.7732   -8.2131   14.8807 C   0  0  0  0  0  0  0  0  0  0  0  0
   10.8831   -4.2697   18.8686 C   0  0  0  0  0  0  0  0  0  0  0  0
    4.0294  -10.9744   18.3504 N   0  0  0  0  0  0  0  0  0  0  0  0
    6.8439   -6.6657   16.6314 C   0  0  0  0  0  0  0  0  0  0  0  0
   13.4499   -5.2027   22.0138 He  0  0  0  0  0  0  0  0  0  0  0  0
    5.1664   -8.5812   16.4927 He  0  0  0  0  0  0  0  0  0  0  0  0
    9.0574   -3.8079   17.6439 He  0  0  0  0  0  0  0  0  0  0  0  0
   14.1100   -3.8447   24.7335 He  0  0  0  0  0  0  0  0  0  0  0  0
    6.2945   -7.0383   16.8240 He  0  0  0  0  0  0  0  0  0  0  0  0
   -0.0096  -10.8986   19.2509 He  0  0  0  0  0  0  0  0  0  0  0  0
    1.5329   -9.9268   17.3744 He  0  0  0  0  0  0  0  0  0  0  0  0
   10.3377   -4.7153   18.5825 He  0  0  0  0  0  0  0  0  0  0  0  0
  1  6  4  0
  1  7  1  0
  1 11  1  0
  1 21  1  0
  2  4  3  0
  2 12  1  0
  2 23  4  0
  2 24  4  0
  3  6  4  0
  3 14  4  0
  3 16  4  0
  4 12  4  0
  4 13  1  0
  4 16  4  0
  4 21  2  0
  4 23  4  0
  5 10  3  0
  5 11  1  0
  5 18  4  0
  5 19  4  0
  5 25  4  0
  5 26  4  0
  6  8  4  0
  6 10  4  0
  6 12  2  0
  6 13  2  0
  6 14  4  0
  6 21  3  0
  6 26  4  0
  7  8  3  0
  7 11  1  0
  7 17  4  0
  7 18  4  0
  7 20  3  0
  7 24  4  0
  8 10  2  0
  8 16  1  0
  8 24  1  0
  9 15  4  0
  9 23  1  0
  9 26  2  0
 10 15  4  0
 10 18  1  0
 10 20  2  0
 10 25  2  0
 10 26  2  0
 11 13  1  0
 11 23  3  0
 12 14  2  0
 12 20  1  0
 12 21  3  0
 12 23  1  0
 13 14  4  0
 13 16  1  0
 13 21  1  0
 13 25  1  0
 13 26  1  0
 14 18  4  0
 15 17  3  0
 15 18  3  0
 15 20  4  0
 16 23  4  0
 16 24  3  0
 17 21  3  0
 18 19  2  0
 18 21  1  0
 18 23  1  0
 19 23  4  0
 20 25  4  0
 21 23  4  0
 22 23  4  0
 22 25  4  0
 23 26  2  0
M  END
$$$$

 Created by Python create_sdf_string function

 34 36  0  0  0  0  0  0  0  0999 V2000
   12.8181   -5.2675   20.4785 C   0  0  0  0  0  0  0  0  0  0  0  0
    7.9818   -8.0233   15.5613 C   0  0  0  0  0  0  0  0  0  0  0  0
   11.0293   -3.8338   21.4002 C   0  0  0  0  0  0  0  0  0  0  0  0
    2.8938   -9.0574   16.5733 C   0  0  0  0  0  0  0  0  0  0  0  0
    0.9435  -12.2566   21.1191 C   0  0  0  0  0  0  0  0  0  0  0  0
   11.5428   -4.0219   22.3984 C   0  0  0  0  0  0  0  0  0  0  0  0
   11.2616   -3.8609   16.5132 N   0  0  0  0  0  0  0  0  0  0  0  0
   13.2994   -5.2559   21.6271 C   0  0  0  0  0  0  0  0  0  0  0  0
    5.3853   -8.5405   16.3938 C   0  0  0  0  0  0  0  0  0  0  0  0
   11.4798   -3.7734   18.0995 N   0  0  0  0  0  0  0  0  0  0  0  0
    1.5411  -11.1403   19.1123 C   0  0  0  0  0  0  0  0  0  0  0  0
   12.6980   -4.6136   22.5738 C   0  0  0  0  0  0  0  0  0  0  0  0
    8.0957   -5.7370   17.3470 O   0  0  0  0  0  0  0  0  0  0  0  0
    9.5030   -4.7426   17.1752 C   0  0  0  0  0  0  0  0  0  0  0  0
    4.2595   -9.1700   16.8702 C   0  0  0  0  0  0  0  0  0  0  0  0
   13.7702   -4.2002   24.5657 C   0  0  0  0  0  0  0  0  0  0  0  0
    8.0554   -5.9700   16.4797 C   0  0  0  0  0  0  0  0  0  0  0  0
    6.1657   -7.3938   16.8664 C   0  0  0  0  0  0  0  0  0  0  0  0
   11.4036   -4.0858   20.8072 C   0  0  0  0  0  0  0  0  0  0  0  0
    1.8927  -11.8499   20.1886 C   0  0  0  0  0  0  0  0  0  0  0  0
    5.9549   -9.2685   15.5779 C   0  0  0  0  0  0  0  0  0  0  0  0
    0.2624  -10.9133   18.9029 C   0  0  0  0  0  0  0  0  0  0  0  0
    1.9220   -9.7764   17.3334 C   0  0  0  0  0  0  0  0  0  0  0  0
   10.1228   -4.3165   16.1766 N   0  0  0  0  0  0  0  0  0  0  0  0
    9.8412   -4.5792   18.3671 N   0  0  0  0  0  0  0  0  0  0  0  0
   13.1982   -4.5798   23.7376 C   0  0  0  0  0  0  0  0  0  0  0  0
   -0.3195  -11.9927   20.9030 C   0  0  0  0  0  0  0  0  0  0  0  0
    4.5570  -10.0047   17.6980 N   0  0  0  0  0  0  0  0  0  0  0  0
   -0.6996  -11.3134   19.7855 C   0  0  0  0  0  0  0  0  0  0  0  0
    2.4773  -10.5581   18.2746 C   0  0  0  0  0  0  0  0  0  0  0  0
    7.3220   -8.9734   15.0924 C   0  0  0  0  0  0  0  0  0  0  0  0
   10.9122   -4.1005   18.5550 C   0  0  0  0  0  0  0  0  0  0  0  0
    3.7888  -10.6880   18.4089 N   0  0  0  0  0  0  0  0  0  0  0  0
    7.3253   -7.0523   16.4100 C   0  0  0  0  0  0  0  0  0  0  0  0
  1  8  4  0
  1 19  4  0
  2 31  4  0
  2 34  4  0
  3  6  4  0
  3 19  4  0
  4 15  4  0
  4 23  4  0
  5 20  4  0
  5 27  4  0
  6 12  4  0
  7 10  4  0
  7 24  4  0
  8 12  4  0
  9 15  1  0
  9 18  4  0
  9 21  4  0
 10 32  4  0
 11 20  4  0
 11 22  4  0
 11 30  1  0
 12 26  1  0
 13 17  1  0
 14 24  4  0
 14 25  4  0
 15 28  4  0
 16 26  1  0
 17 34  1  0
 18 34  4  0
 21 31  4  0
 22 29  4  0
 23 30  4  0
 25 32  4  0
 27 29  4  0
 28 33  4  0
 30 33  4  0
M  END
$$$$

 Created by Python create_sdf_string function

 34 88  0  0  0  0  0  0  0  0999 V2000
   12.8028   -5.2888   20.4322 C   0  0  0  0  0  0  0  0  0  0  0  0
    8.4817   -8.4781   15.4969 F   0  0  0  0  0  0  0  0  0  0  0  0
   11.5974   -3.1891   22.0712 C   0  0  0  0  0  0  0  0  0  0  0  0
    1.2405  -12.0506   21.4220 C   0  0  0  0  0  0  0  0  0  0  0  0
   11.9166   -4.3092   22.2614 Se  0  0  0  0  0  0  0  0  0  0  0  0
   11.8624   -3.5681   16.4916 C   0  0  0  0  0  0  0  0  0  0  0  0
   13.3744   -6.1253   21.5899 C   0  0  0  0  0  0  0  0  0  0  0  0
   11.1826   -4.7083   18.6353 N   0  0  0  0  0  0  0  0  0  0  0  0
    1.5595  -11.2032   18.9607 C   0  0  0  0  0  0  0  0  0  0  0  0
   12.6637   -5.3031   23.3396 C   0  0  0  0  0  0  0  0  0  0  0  0
    7.8095   -6.3063   17.7237 Br  0  0  0  0  0  0  0  0  0  0  0  0
    9.7251   -5.2317   17.1752 C   0  0  0  0  0  0  0  0  0  0  0  0
    3.7268   -9.3061   16.8100 C   0  0  0  0  0  0  0  0  0  0  0  0
    6.0501   -7.0001   17.1637 N   0  0  0  0  0  0  0  0  0  0  0  0
   11.6389   -4.2136   20.5004 C   0  0  0  0  0  0  0  0  0  0  0  0
    2.1456  -12.1771   19.3132 C   0  0  0  0  0  0  0  0  0  0  0  0
    6.1781   -9.3788   15.0592 C   0  0  0  0  0  0  0  0  0  0  0  0
    0.3138  -10.9479   18.9168 C   0  0  0  0  0  0  0  0  0  0  0  0
    1.9976   -9.4784   17.5754 C   0  0  0  0  0  0  0  0  0  0  0  0
   10.0244   -4.4253   16.4796 N   0  0  0  0  0  0  0  0  0  0  0  0
   10.3098   -4.1390   18.1580 N   0  0  0  0  0  0  0  0  0  0  0  0
   13.1172   -4.3408   23.7033 C   0  0  0  0  0  0  0  0  0  0  0  0
   -0.3404  -12.2959   20.9904 C   0  0  0  0  0  0  0  0  0  0  0  0
    4.2334  -10.2974   17.8143 N   0  0  0  0  0  0  0  0  0  0  0  0
   -0.3997  -10.8354   19.4950 C   0  0  0  0  0  0  0  0  0  0  0  0
    2.4523  -10.8070   18.4275 C   0  0  0  0  0  0  0  0  0  0  0  0
    8.3839   -9.0108   14.8427 C   0  0  0  0  0  0  0  0  0  0  0  0
   10.9215   -4.2531   18.6676 C   0  0  0  0  0  0  0  0  0  0  0  0
    3.6867  -10.7927   18.4322 N   0  0  0  0  0  0  0  0  0  0  0  0
    6.7355   -7.4094   15.9635 C   0  0  0  0  0  0  0  0  0  0  0  0
    2.8513   -8.8394   16.4602 He  0  0  0  0  0  0  0  0  0  0  0  0
    5.4561   -8.9762   17.0206 He  0  0  0  0  0  0  0  0  0  0  0  0
   14.3203   -4.3103   24.4475 He  0  0  0  0  0  0  0  0  0  0  0  0
    7.7199   -6.9936   15.5167 He  0  0  0  0  0  0  0  0  0  0  0  0
  1  6  4  0
  1 21  2  0
  1 27  4  0
  2  3  2  0
  2 10  1  0
  2 12  4  0
  2 14  4  0
  2 16  4  0
  2 17  2  0
  2 19  4  0
  2 27  4  0
  2 28  1  0
  2 30  4  0
  3  5  4  0
  3 10  4  0
  3 14  2  0
  3 15  4  0
  3 20  4  0
  3 21  1  0
  3 22  1  0
  3 28  1  0
  3 29  2  0
  4  6  1  0
  4  7  1  0
  4 23  2  0
  4 29  4  0
  5 10  4  0
  5 11  1  0
  5 17  1  0
  5 24  3  0
  5 25  3  0
  6  8  4  0
  6 10  4  0
  6 15  1  0
  6 20  4  0
  6 21  2  0
  6 22  2  0
  6 25  2  0
  6 28  3  0
  6 30  1  0
  7 10  4  0
  7 23  4  0
  7 29  2  0
  8 12  4  0
  8 14  3  0
  8 15  3  0
  8 19  2  0
  9 10  4  0
  9 11  1  0
  9 16  4  0
  9 18  4  0
  9 26  1  0
  9 30  3  0
 10 11  3  0
 10 16  1  0
 10 19  4  0
 10 20  4  0
 10 22  1  0
 11 18  1  0
 11 19  3  0
 11 23  2  0
 11 30  1  0
 12 20  4  0
 13 24  4  0
 13 30  3  0
 14 17  4  0
 14 22  3  0
 14 30  2  0
 15 26  4  0
 16 17  4  0
 16 18  4  0
 16 20  1  0
 16 29  2  0
 17 27  4  0
 18 19  4  0
 18 25  4  0
 18 28  4  0
 20 25  3  0
 20 27  1  0
 21 22  4  0
 21 28  3  0
 22 25  4  0
 23 25  4  0
 24 29  4  0
 26 29  4  0
 26 30  1  0
 27 28  1  0
 27 29  1  0
M  END
$$$$

 Created by Python create_sdf_string function

 34 34  0  0  0  0  0  0  0  0999 V2000
   12.7283   -5.3736   20.5735 C   0  0  0  0  0  0  0  0  0  0  0  0
    8.0778   -7.9951   15.6998 C   0  0  0  0  0  0  0  0  0  0  0  0
   11.1198   -3.7196   21.5015 C   0  0  0  0  0  0  0  0  0  0  0  0
    3.1936   -9.0079   16.6537 C   0  0  0  0  0  0  0  0  0  0  0  0
    0.9710  -12.2536   21.1735 C   0  0  0  0  0  0  0  0  0  0  0  0
   11.6645   -3.7743   22.6216 C   0  0  0  0  0  0  0  0  0  0  0  0
   11.2255   -3.5788   16.5319 C   0  0  0  0  0  0  0  0  0  0  0  0
   13.3202   -5.3772   21.8736 C   0  0  0  0  0  0  0  0  0  0  0  0
    5.5581   -8.7353   16.3961 C   0  0  0  0  0  0  0  0  0  0  0  0
   10.8184   -4.5040   18.8714 N   0  0  0  0  0  0  0  0  0  0  0  0
    1.4934  -11.1355   19.0898 C   0  0  0  0  0  0  0  0  0  0  0  0
   12.7059   -4.6235   22.7640 C   0  0  0  0  0  0  0  0  0  0  0  0
    8.2786   -5.9988   17.7276 S   0  0  0  0  0  0  0  0  0  0  0  0
    9.7754   -4.9586   17.1457 C   0  0  0  0  0  0  0  0  0  0  0  0
    4.4457   -9.2915   16.9473 C   0  0  0  0  0  0  0  0  0  0  0  0
   14.0735   -4.4877   24.6442 C   0  0  0  0  0  0  0  0  0  0  0  0
    7.9754   -5.9984   16.3626 C   0  0  0  0  0  0  0  0  0  0  0  0
    6.0861   -7.6254   16.7886 C   0  0  0  0  0  0  0  0  0  0  0  0
   11.6241   -4.4570   20.4970 C   0  0  0  0  0  0  0  0  0  0  0  0
    1.8465  -11.9064   20.2372 C   0  0  0  0  0  0  0  0  0  0  0  0
    6.3018   -9.4533   15.5180 C   0  0  0  0  0  0  0  0  0  0  0  0
    0.2102  -10.8926   18.9446 C   0  0  0  0  0  0  0  0  0  0  0  0
    2.1655   -9.6012   17.1002 C   0  0  0  0  0  0  0  0  0  0  0  0
   10.3429   -4.4062   16.3593 N   0  0  0  0  0  0  0  0  0  0  0  0
   10.9916   -4.0044   18.3728 N   0  0  0  0  0  0  0  0  0  0  0  0
   13.2462   -4.6846   24.0320 C   0  0  0  0  0  0  0  0  0  0  0  0
   -0.2803  -11.8947   21.0741 C   0  0  0  0  0  0  0  0  0  0  0  0
    4.6414  -10.1649   17.8843 N   0  0  0  0  0  0  0  0  0  0  0  0
   -0.7007  -11.2578   19.9721 C   0  0  0  0  0  0  0  0  0  0  0  0
    2.4513  -10.5510   18.2536 C   0  0  0  0  0  0  0  0  0  0  0  0
    7.5460   -9.0107   15.1839 C   0  0  0  0  0  0  0  0  0  0  0  0
   10.9429   -4.2780   18.7729 C   0  0  0  0  0  0  0  0  0  0  0  0
    3.7669  -10.8613   18.5056 N   0  0  0  0  0  0  0  0  0  0  0  0
    7.3528   -7.2195   16.4846 C   0  0  0  0  0  0  0  0  0  0  0  0
  1  8  4  0
  1 19  4  0
  2 31  4  0
  2 34  4  0
  3  6  4  0
  3 19  4  0
  4 15  4  0
  4 23  4  0
  5 20  4  0
  5 27  4  0
  6 12  4  0
  7 24  4  0
  8 12  4  0
  9 15  1  0
  9 18  4  0
  9 21  4  0
 10 32  4  0
 11 20  4  0
 11 22  4  0
 11 30  1  0
 12 26  1  0
 13 17  1  0
 14 24  4  0
 15 28  4  0
 16 26  1  0
 18 34  4  0
 19 32  1  0
 21 31  4  0
 22 29  4  0
 23 30  4  0
 25 32  4  0
 27 29  4  0
 28 33  4  0
 30 33  4  0
M  END
$$$$

 Created by Python create_sdf_string function

 34 68  0  0  0  0  0  0  0  0999 V2000
   12.5664   -4.5941   20.5639 C   0  0  0  0  0  0  0  0  0  0  0  0
   10.8479   -3.4267   21.8074 C   0  0  0  0  0  0  0  0  0  0  0  0
    3.2601   -9.0268   16.8179 C   0  0  0  0  0  0  0  0  0  0  0  0
    1.0472  -11.6503   21.1455 C   0  0  0  0  0  0  0  0  0  0  0  0
   11.8899   -3.2731   22.6746 C   0  0  0  0  0  0  0  0  0  0  0  0
   11.6254   -3.1438   17.1556 C   0  0  0  0  0  0  0  0  0  0  0  0
   13.6907   -5.7645   22.1205 S   0  0  0  0  0  0  0  0  0  0  0  0
    5.6191   -9.0383   16.1818 C   0  0  0  0  0  0  0  0  0  0  0  0
   11.3930   -5.2182   18.6758 N   0  0  0  0  0  0  0  0  0  0  0  0
    1.2939  -10.9163   18.8158 C   0  0  0  0  0  0  0  0  0  0  0  0
    8.7468   -6.3508   17.6773 S   0  0  0  0  0  0  0  0  0  0  0  0
   10.3279   -5.1852   17.7487 C   0  0  0  0  0  0  0  0  0  0  0  0
   14.5766   -4.0274   24.6195 C   0  0  0  0  0  0  0  0  0  0  0  0
    8.9766   -6.0865   16.3535 N   0  0  0  0  0  0  0  0  0  0  0  0
   12.6810   -4.1265   21.2749 O   0  0  0  0  0  0  0  0  0  0  0  0
    2.1530  -11.9972   19.7450 N   0  0  0  0  0  0  0  0  0  0  0  0
    6.1331   -8.4730   15.5517 C   0  0  0  0  0  0  0  0  0  0  0  0
    0.2511  -10.9280   18.8547 C   0  0  0  0  0  0  0  0  0  0  0  0
    2.6226   -9.8925   16.6849 O   0  0  0  0  0  0  0  0  0  0  0  0
   10.3507   -4.4881   16.1890 N   0  0  0  0  0  0  0  0  0  0  0  0
   13.1392   -4.6042   23.9899 C   0  0  0  0  0  0  0  0  0  0  0  0
   -0.4044  -11.9751   20.8892 C   0  0  0  0  0  0  0  0  0  0  0  0
    4.7871  -10.1768   17.8843 C   0  0  0  0  0  0  0  0  0  0  0  0
   -0.5609  -11.7463   19.9946 P   0  0  0  0  0  0  0  0  0  0  0  0
    3.0202  -10.4427   18.0845 C   0  0  0  0  0  0  0  0  0  0  0  0
   11.4496   -4.0621   18.7340 C   0  0  0  0  0  0  0  0  0  0  0  0
    4.1818  -10.9296   18.3869 S   0  0  0  0  0  0  0  0  0  0  0  0
    7.4205   -7.4441   16.8578 C   0  0  0  0  0  0  0  0  0  0  0  0
    8.5582   -7.8058   16.0076 He  0  0  0  0  0  0  0  0  0  0  0  0
   12.7442   -5.2063   22.5547 He  0  0  0  0  0  0  0  0  0  0  0  0
    3.0962   -9.2292   16.3152 He  0  0  0  0  0  0  0  0  0  0  0  0
    5.5274   -7.8082   16.3162 He  0  0  0  0  0  0  0  0  0  0  0  0
   11.1143   -3.6118   18.4829 He  0  0  0  0  0  0  0  0  0  0  0  0
    7.5674   -9.2902   15.4020 He  0  0  0  0  0  0  0  0  0  0  0  0
  2  5  4  0
  2  8  4  0
  2 19  1  0
  2 28  1  0
  3  8  3  0
  3 11  3  0
  3 14  2  0
  3 15  2  0
  3 19  4  0
  3 24  3  0
  4  8  3  0
  4 11  3  0
  4 14  1  0
  4 18  1  0
  4 26  4  0
  4 27  4  0
  4 28  1  0
  5 19  2  0
  6 20  4  0
  7 11  3  0
  7 19  4  0
  7 24  3  0
  8 16  1  0
  8 17  1  0
  8 24  2  0
  9 17  2  0
  9 18  3  0
  9 22  2  0
  9 24  1  0
  9 26  4  0
 10 14  4  0
 10 16  4  0
 10 17  1  0
 10 18  4  0
 10 25  1  0
 11 14  1  0
 11 15  4  0
 11 23  4  0
 12 23  3  0
 12 26  3  0
 13 21  1  0
 13 23  4  0
 13 28  4  0
 14 24  4  0
 14 27  1  0
 15 19  3  0
 15 26  1  0
 16 20  2  0
 16 24  2  0
 16 25  2  0
 17 18  4  0
 17 22  2  0
 17 23  1  0
 17 25  4  0
 18 22  3  0
 18 25  1  0
 19 23  4  0
 19 25  4  0
 19 26  2  0
 20 21  4  0
 20 24  1  0
 20 26  4  0
 21 25  2  0
 21 28  1  0
 22 28  2  0
 23 27  4  0
 25 27  4  0
 27 28  2  0
M  END
$$$$

 Created by Python create_sdf_string function

 34 38  0  0  0  0  0  0  0  0999 V2000
   12.7486   -5.3441   20.7525 C   0  0  0  0  0  0  0  0  0  0  0  0
    8.1923   -7.7060   15.9006 C   0  0  0  0  0  0  0  0  0  0  0  0
   11.3684   -3.5552   21.5200 C   0  0  0  0  0  0  0  0  0  0  0  0
    3.1960   -9.1563   16.4109 C   0  0  0  0  0  0  0  0  0  0  0  0
    1.0354  -12.0204   21.1803 C   0  0  0  0  0  0  0  0  0  0  0  0
   11.9029   -3.5772   22.7896 C   0  0  0  0  0  0  0  0  0  0  0  0
   11.1530   -3.0449   17.0944 C   0  0  0  0  0  0  0  0  0  0  0  0
   13.4717   -5.4029   21.9971 C   0  0  0  0  0  0  0  0  0  0  0  0
    5.4275   -8.7567   15.9425 C   0  0  0  0  0  0  0  0  0  0  0  0
   10.8060   -5.2640   18.4372 N   0  0  0  0  0  0  0  0  0  0  0  0
    1.5910  -11.0902   19.0714 C   0  0  0  0  0  0  0  0  0  0  0  0
   12.9215   -4.5334   22.8837 C   0  0  0  0  0  0  0  0  0  0  0  0
    9.1274   -6.1558   17.8461 S   0  0  0  0  0  0  0  0  0  0  0  0
   10.3586   -4.9699   17.7169 C   0  0  0  0  0  0  0  0  0  0  0  0
    4.3866   -9.3825   16.6062 C   0  0  0  0  0  0  0  0  0  0  0  0
   14.3053   -4.3467   24.7389 C   0  0  0  0  0  0  0  0  0  0  0  0
    8.9194   -6.6039   16.5435 C   0  0  0  0  0  0  0  0  0  0  0  0
    6.0790   -7.4644   16.7659 C   0  0  0  0  0  0  0  0  0  0  0  0
   11.7768   -4.3710   20.4829 C   0  0  0  0  0  0  0  0  0  0  0  0
    1.9746  -11.6544   20.2577 N   0  0  0  0  0  0  0  0  0  0  0  0
    6.4598   -9.0673   15.3985 C   0  0  0  0  0  0  0  0  0  0  0  0
    0.2229  -11.0701   18.7982 C   0  0  0  0  0  0  0  0  0  0  0  0
    2.2040   -9.7007   17.1538 N   0  0  0  0  0  0  0  0  0  0  0  0
   10.4725   -4.1410   16.6133 N   0  0  0  0  0  0  0  0  0  0  0  0
   11.4093   -3.0643   18.4094 N   0  0  0  0  0  0  0  0  0  0  0  0
   13.5009   -4.5670   24.1944 C   0  0  0  0  0  0  0  0  0  0  0  0
   -0.2537  -11.8411   20.9116 C   0  0  0  0  0  0  0  0  0  0  0  0
    4.7634  -10.1658   17.5496 C   0  0  0  0  0  0  0  0  0  0  0  0
   -0.6249  -11.3939   19.7791 C   0  0  0  0  0  0  0  0  0  0  0  0
    2.5382  -10.5428   18.2043 C   0  0  0  0  0  0  0  0  0  0  0  0
    7.7006   -8.6557   15.2594 C   0  0  0  0  0  0  0  0  0  0  0  0
   11.2467   -4.2386   19.0158 C   0  0  0  0  0  0  0  0  0  0  0  0
    3.8443  -10.8069   18.4709 N   0  0  0  0  0  0  0  0  0  0  0  0
    6.8218   -7.1157   16.8164 C   0  0  0  0  0  0  0  0  0  0  0  0
  1  8  4  0
  1 19  4  0
  2 17  1  0
  2 31  4  0
  2 34  4  0
  3  6  4  0
  3 19  4  0
  4 15  4  0
  4 23  4  0
  5 20  4  0
  5 27  4  0
  6 12  4  0
  7 24  4  0
  7 25  4  0
  8 12  4  0
  9 15  1  0
  9 18  4  0
  9 21  4  0
 10 14  4  0
 10 32  4  0
 11 20  4  0
 11 22  4  0
 11 30  1  0
 12 26  1  0
 13 14  1  0
 13 17  1  0
 14 24  4  0
 15 28  4  0
 16 26  1  0
 18 34  4  0
 19 32  1  0
 21 31  4  0
 22 29  4  0
 23 30  4  0
 25 32  4  0
 27 29  4  0
 28 33  4  0
 30 33  4  0
M  END
$$$$

 Created by Python create_sdf_string function

 34 71  0  0  0  0  0  0  0  0999 V2000
   12.5692   -5.5717   20.9312 C   0  0  0  0  0  0  0  0  0  0  0  0
    8.0364   -8.2357   16.7600 C   0  0  0  0  0  0  0  0  0  0  0  0
   11.0613   -2.7774   21.6674 C   0  0  0  0  0  0  0  0  0  0  0  0
    3.4594   -9.1671   16.8029 C   0  0  0  0  0  0  0  0  0  0  0  0
    0.6096  -11.3286   21.0204 C   0  0  0  0  0  0  0  0  0  0  0  0
   12.0977   -3.1543   22.9917 C   0  0  0  0  0  0  0  0  0  0  0  0
    5.5745   -9.3759   14.8885 C   0  0  0  0  0  0  0  0  0  0  0  0
   10.7301   -5.5767   19.9481 N   0  0  0  0  0  0  0  0  0  0  0  0
   13.0835   -3.8980   22.5048 C   0  0  0  0  0  0  0  0  0  0  0  0
    9.1386   -6.0546   17.5273 N   0  0  0  0  0  0  0  0  0  0  0  0
   11.0812   -5.0394   17.6309 O   0  0  0  0  0  0  0  0  0  0  0  0
    3.8219   -9.1475   15.7733 O   0  0  0  0  0  0  0  0  0  0  0  0
    9.3816   -6.9420   16.3279 C   0  0  0  0  0  0  0  0  0  0  0  0
    6.1218   -7.1280   16.7300 C   0  0  0  0  0  0  0  0  0  0  0  0
   11.8621   -3.7229   21.1050 C   0  0  0  0  0  0  0  0  0  0  0  0
    6.8227   -8.8874   15.9320 N   0  0  0  0  0  0  0  0  0  0  0  0
    0.1291  -11.0615   18.7073 C   0  0  0  0  0  0  0  0  0  0  0  0
    2.3646  -10.6386   16.8178 N   0  0  0  0  0  0  0  0  0  0  0  0
   10.6202   -4.1813   16.4426 N   0  0  0  0  0  0  0  0  0  0  0  0
   11.7604   -3.3495   18.3327 N   0  0  0  0  0  0  0  0  0  0  0  0
   -0.2929  -11.7827   20.9284 C   0  0  0  0  0  0  0  0  0  0  0  0
    4.6115  -10.0015   17.5239 C   0  0  0  0  0  0  0  0  0  0  0  0
   -0.0206  -11.3793   19.3238 C   0  0  0  0  0  0  0  0  0  0  0  0
    2.6228  -10.7096   18.2447 C   0  0  0  0  0  0  0  0  0  0  0  0
   11.0595   -4.0766   18.9251 C   0  0  0  0  0  0  0  0  0  0  0  0
    4.0815  -10.9250   18.2555 N   0  0  0  0  0  0  0  0  0  0  0  0
    6.1189   -7.0717   17.2993 C   0  0  0  0  0  0  0  0  0  0  0  0
   11.8433   -3.3508   16.7643 He  0  0  0  0  0  0  0  0  0  0  0  0
   13.4214   -5.0720   21.6212 He  0  0  0  0  0  0  0  0  0  0  0  0
    1.7912  -11.0465   18.7817 He  0  0  0  0  0  0  0  0  0  0  0  0
   12.9825   -4.9210   24.6453 He  0  0  0  0  0  0  0  0  0  0  0  0
    0.8182  -11.7620   20.7184 He  0  0  0  0  0  0  0  0  0  0  0  0
   13.6097   -4.5533   24.2244 He  0  0  0  0  0  0  0  0  0  0  0  0
    7.0755   -8.1543   14.9278 He  0  0  0  0  0  0  0  0  0  0  0  0
  1  8  2  0
  1 16  3  0
  1 21  3  0
  2  4  3  0
  2  5  2  0
  2  8  1  0
  2 13  1  0
  2 19  2  0
  2 25  1  0
  2 26  1  0
  2 27  2  0
  3  6  4  0
  3  9  4  0
  3 12  1  0
  3 15  4  0
  3 17  3  0
  3 23  3  0
  3 24  2  0
  4 18  1  0
  5  6  4  0
  5  7  2  0
  5 13  4  0
  5 16  4  0
  5 21  4  0
  6  9  4  0
  6 11  3  0
  6 20  1  0
  7 12  1  0
  7 18  2  0
  7 25  2  0
  8 10  2  0
  8 11  1  0
  8 16  1  0
  8 18  2  0
  8 25  4  0
  9 11  3  0
  9 15  3  0
  9 16  2  0
  9 18  4  0
  9 22  1  0
 10 11  1  0
 10 20  4  0
 11 13  4  0
 11 18  4  0
 11 19  4  0
 11 23  3  0
 12 16  1  0
 12 22  2  0
 12 23  4  0
 12 25  3  0
 13 14  1  0
 13 24  4  0
 14 23  2  0
 14 26  2  0
 14 27  4  0
 15 16  4  0
 15 18  2  0
 15 20  3  0
 15 21  4  0
 15 23  4  0
 16 19  2  0
 16 23  3  0
 17 23  4  0
 18 21  4  0
 18 26  1  0
 20 23  3  0
 22 26  1  0
 23 25  2  0
 23 26  4  0
 24 26  4  0
 25 27  3  0
M  END
$$$$

 Created by Python create_sdf_string function

 34 38  0  0  0  0  0  0  0  0999 V2000
   12.6438   -5.1904   20.8734 C   0  0  0  0  0  0  0  0  0  0  0  0
    8.0345   -7.7272   16.6505 C   0  0  0  0  0  0  0  0  0  0  0  0
   11.4433   -3.1628   21.5409 C   0  0  0  0  0  0  0  0  0  0  0  0
    3.1949   -9.2947   16.4218 C   0  0  0  0  0  0  0  0  0  0  0  0
    0.8829  -11.6050   21.1795 C   0  0  0  0  0  0  0  0  0  0  0  0
   11.9870   -3.2151   22.7983 C   0  0  0  0  0  0  0  0  0  0  0  0
   11.3385   -3.2362   17.1049 C   0  0  0  0  0  0  0  0  0  0  0  0
   13.2097   -5.1924   22.2122 C   0  0  0  0  0  0  0  0  0  0  0  0
    5.1880   -9.1626   15.2074 C   0  0  0  0  0  0  0  0  0  0  0  0
   10.4840   -5.0035   18.8829 N   0  0  0  0  0  0  0  0  0  0  0  0
    1.6366  -11.1106   19.1362 C   0  0  0  0  0  0  0  0  0  0  0  0
   12.7738   -4.2599   22.9670 C   0  0  0  0  0  0  0  0  0  0  0  0
    9.4233   -6.2104   17.5324 N   0  0  0  0  0  0  0  0  0  0  0  0
   10.2167   -5.1531   17.7080 C   0  0  0  0  0  0  0  0  0  0  0  0
    4.4076   -9.4142   16.3156 C   0  0  0  0  0  0  0  0  0  0  0  0
   13.4385   -4.6128   24.9245 C   0  0  0  0  0  0  0  0  0  0  0  0
    8.9630   -6.8973   16.5734 C   0  0  0  0  0  0  0  0  0  0  0  0
    5.8992   -7.3498   16.7297 C   0  0  0  0  0  0  0  0  0  0  0  0
   11.7676   -4.0354   20.5659 C   0  0  0  0  0  0  0  0  0  0  0  0
    1.7612  -11.4948   20.3204 C   0  0  0  0  0  0  0  0  0  0  0  0
    6.1981   -8.4219   15.7519 N   0  0  0  0  0  0  0  0  0  0  0  0
    0.3438  -11.2119   18.6648 C   0  0  0  0  0  0  0  0  0  0  0  0
    2.3352   -9.8233   17.1083 N   0  0  0  0  0  0  0  0  0  0  0  0
   10.7078   -4.3443   16.7247 N   0  0  0  0  0  0  0  0  0  0  0  0
   11.5390   -2.9732   18.2915 N   0  0  0  0  0  0  0  0  0  0  0  0
   13.5884   -4.3451   24.3183 C   0  0  0  0  0  0  0  0  0  0  0  0
   -0.2810  -11.6729   20.8677 C   0  0  0  0  0  0  0  0  0  0  0  0
    4.7250  -10.1839   17.4908 C   0  0  0  0  0  0  0  0  0  0  0  0
   -0.5820  -11.4929   19.5491 C   0  0  0  0  0  0  0  0  0  0  0  0
    2.5778  -10.6095   18.2510 C   0  0  0  0  0  0  0  0  0  0  0  0
    7.5662   -8.5229   15.5725 C   0  0  0  0  0  0  0  0  0  0  0  0
   11.2376   -3.9654   19.2524 C   0  0  0  0  0  0  0  0  0  0  0  0
    3.8471  -10.7361   18.4820 N   0  0  0  0  0  0  0  0  0  0  0  0
    6.7412   -7.1557   17.5003 C   0  0  0  0  0  0  0  0  0  0  0  0
  1  8  4  0
  1 19  4  0
  2 17  1  0
  2 31  1  0
  2 34  4  0
  3  6  4  0
  3 19  4  0
  4 15  4  0
  4 23  4  0
  5 20  4  0
  5 27  4  0
  6 12  4  0
  7 24  4  0
  7 25  4  0
  8 12  4  0
  9 15  1  0
  9 21  1  0
 10 14  4  0
 10 32  4  0
 11 20  4  0
 11 22  4  0
 11 30  1  0
 12 26  1  0
 13 14  1  0
 13 17  1  0
 14 24  4  0
 15 28  4  0
 16 26  1  0
 18 21  4  0
 18 34  4  0
 19 32  1  0
 21 31  4  0
 22 29  4  0
 23 30  4  0
 25 32  4  0
 27 29  4  0
 28 33  4  0
 30 33  4  0
M  END
$$$$

 Created by Python create_sdf_string function

 34 65  0  0  0  0  0  0  0  0999 V2000
   11.3984   -2.9950   21.2546 C   0  0  0  0  0  0  0  0  0  0  0  0
    3.0926   -9.3918   16.5106 C   0  0  0  0  0  0  0  0  0  0  0  0
   11.9884   -3.0446   22.9261 C   0  0  0  0  0  0  0  0  0  0  0  0
   11.2820   -2.7819   16.3284 C   0  0  0  0  0  0  0  0  0  0  0  0
    5.3956   -9.5929   14.4839 C   0  0  0  0  0  0  0  0  0  0  0  0
   10.2554   -5.7156   18.8764 N   0  0  0  0  0  0  0  0  0  0  0  0
    1.6324  -11.1004   19.2615 C   0  0  0  0  0  0  0  0  0  0  0  0
   13.0579   -4.2094   23.2731 C   0  0  0  0  0  0  0  0  0  0  0  0
    9.2078   -5.8975   18.2586 C   0  0  0  0  0  0  0  0  0  0  0  0
    4.6492   -9.3524   16.3126 O   0  0  0  0  0  0  0  0  0  0  0  0
   12.9213   -4.8769   25.0194 C   0  0  0  0  0  0  0  0  0  0  0  0
    5.2183   -7.1740   16.4568 C   0  0  0  0  0  0  0  0  0  0  0  0
   12.0198   -3.6171   19.9012 F   0  0  0  0  0  0  0  0  0  0  0  0
    1.6138  -11.6242   20.4021 C   0  0  0  0  0  0  0  0  0  0  0  0
    6.2243   -8.4455   15.6105 N   0  0  0  0  0  0  0  0  0  0  0  0
    0.6330  -11.3273   18.8060 C   0  0  0  0  0  0  0  0  0  0  0  0
    2.3123   -9.9308   17.3252 N   0  0  0  0  0  0  0  0  0  0  0  0
   10.5461   -4.5552   16.5479 O   0  0  0  0  0  0  0  0  0  0  0  0
   11.0859   -3.9092   18.2380 N   0  0  0  0  0  0  0  0  0  0  0  0
   13.6487   -4.4131   24.4625 C   0  0  0  0  0  0  0  0  0  0  0  0
   -0.1116  -11.7686   21.0980 C   0  0  0  0  0  0  0  0  0  0  0  0
    2.5936  -10.6225   18.4674 C   0  0  0  0  0  0  0  0  0  0  0  0
    7.4408   -8.5648   15.1753 C   0  0  0  0  0  0  0  0  0  0  0  0
   11.3196   -4.0352   19.3425 C   0  0  0  0  0  0  0  0  0  0  0  0
    4.0755  -10.9124   18.3680 N   0  0  0  0  0  0  0  0  0  0  0  0
    6.9437   -7.1716   17.9043 N   0  0  0  0  0  0  0  0  0  0  0  0
   12.5052   -5.2796   21.1182 He  0  0  0  0  0  0  0  0  0  0  0  0
    7.7962   -7.4122   16.3980 He  0  0  0  0  0  0  0  0  0  0  0  0
    1.2556  -11.8937   21.4190 He  0  0  0  0  0  0  0  0  0  0  0  0
   13.0563   -5.7373   21.9503 He  0  0  0  0  0  0  0  0  0  0  0  0
   10.0518   -5.6187   17.2602 He  0  0  0  0  0  0  0  0  0  0  0  0
    9.3277   -7.0509   17.4833 He  0  0  0  0  0  0  0  0  0  0  0  0
    4.5201   -9.9406   17.3933 He  0  0  0  0  0  0  0  0  0  0  0  0
   -0.6981  -11.5811   20.2514 He  0  0  0  0  0  0  0  0  0  0  0  0
  1  3  4  0
  1 13  4  0
  1 14  2  0
  1 17  3  0
  1 19  3  0
  1 21  4  0
  2  4  1  0
  2 12  1  0
  2 17  2  0
  2 21  2  0
  2 26  4  0
  3  8  4  0
  3 14  3  0
  3 16  4  0
  3 19  4  0
  3 26  1  0
  4 15  1  0
  4 18  4  0
  4 19  4  0
  4 20  4  0
  5 10  1  0
  5 15  1  0
  6  9  3  0
  6 10  2  0
  6 20  3  0
  7 14  4  0
  7 16  4  0
  7 21  4  0
  7 22  1  0
  8 12  4  0
  8 14  1  0
  8 18  3  0
  8 20  1  0
  8 22  1  0
  9 10  1  0
  9 16  2  0
  9 18  4  0
 10 19  2  0
 10 20  3  0
 10 22  4  0
 11 16  2  0
 11 20  1  0
 11 23  1  0
 11 25  1  0
 12 19  4  0
 12 22  3  0
 12 26  4  0
 13 14  2  0
 13 20  3  0
 13 24  1  0
 14 17  1  0
 14 22  4  0
 15 23  4  0
 15 26  1  0
 16 26  4  0
 17 18  3  0
 17 20  1  0
 17 22  4  0
 17 25  2  0
 17 26  3  0
 20 22  2  0
 20 23  2  0
 21 26  1  0
 22 25  4  0
 23 24  1  0
M  END
$$$$

 Created by Python create_sdf_string function

 34 39  0  0  0  0  0  0  0  0999 V2000
   12.5681   -5.2791   20.8509 C   0  0  0  0  0  0  0  0  0  0  0  0
    7.9870   -7.4172   16.7170 C   0  0  0  0  0  0  0  0  0  0  0  0
   11.5253   -3.1814   21.3494 C   0  0  0  0  0  0  0  0  0  0  0  0
    3.0714   -9.4288   16.3076 C   0  0  0  0  0  0  0  0  0  0  0  0
    1.1948  -11.9068   21.4291 C   0  0  0  0  0  0  0  0  0  0  0  0
   12.0554   -3.1681   22.6290 C   0  0  0  0  0  0  0  0  0  0  0  0
   10.9328   -3.6889   16.9277 C   0  0  0  0  0  0  0  0  0  0  0  0
   13.1340   -5.2950   22.1552 C   0  0  0  0  0  0  0  0  0  0  0  0
    5.2990   -9.2680   15.2471 C   0  0  0  0  0  0  0  0  0  0  0  0
   10.3303   -5.4900   19.2303 N   0  0  0  0  0  0  0  0  0  0  0  0
    1.6710  -11.1344   19.2074 C   0  0  0  0  0  0  0  0  0  0  0  0
   12.8128   -4.2590   22.9370 C   0  0  0  0  0  0  0  0  0  0  0  0
    9.8507   -5.3534   17.1028 C   0  0  0  0  0  0  0  0  0  0  0  0
    9.7294   -5.8682   17.9106 C   0  0  0  0  0  0  0  0  0  0  0  0
    4.4396   -9.6080   16.3196 C   0  0  0  0  0  0  0  0  0  0  0  0
   12.9282   -4.8164   25.2783 C   0  0  0  0  0  0  0  0  0  0  0  0
    9.2488   -6.9027   17.1256 C   0  0  0  0  0  0  0  0  0  0  0  0
    5.8665   -7.3894   16.6805 C   0  0  0  0  0  0  0  0  0  0  0  0
   11.7013   -4.2162   20.5343 C   0  0  0  0  0  0  0  0  0  0  0  0
    2.0583  -11.6954   20.4008 C   0  0  0  0  0  0  0  0  0  0  0  0
    6.2970   -8.3468   15.8180 N   0  0  0  0  0  0  0  0  0  0  0  0
    0.3005  -11.1250   19.0099 C   0  0  0  0  0  0  0  0  0  0  0  0
    2.2206   -9.8557   17.1994 N   0  0  0  0  0  0  0  0  0  0  0  0
   10.0977   -4.5664   16.0662 C   0  0  0  0  0  0  0  0  0  0  0  0
   11.2397   -3.5805   18.2481 N   0  0  0  0  0  0  0  0  0  0  0  0
   13.4572   -4.3102   24.1876 C   0  0  0  0  0  0  0  0  0  0  0  0
   -0.1159  -11.8126   21.1989 C   0  0  0  0  0  0  0  0  0  0  0  0
    4.7745  -10.2999   17.5234 C   0  0  0  0  0  0  0  0  0  0  0  0
   -0.5817  -11.4828   20.0039 C   0  0  0  0  0  0  0  0  0  0  0  0
    2.5925  -10.5698   18.3208 C   0  0  0  0  0  0  0  0  0  0  0  0
    7.6100   -8.3649   15.6582 C   0  0  0  0  0  0  0  0  0  0  0  0
   11.0659   -4.3347   19.2842 C   0  0  0  0  0  0  0  0  0  0  0  0
    3.9524  -10.6841   18.4294 N   0  0  0  0  0  0  0  0  0  0  0  0
    6.8774   -6.8932   17.3780 N   0  0  0  0  0  0  0  0  0  0  0  0
  1  8  4  0
  1 19  4  0
  2 17  1  0
  2 31  4  0
  2 34  4  0
  3  6  4  0
  3 19  4  0
  4 15  4  0
  4 23  4  0
  5 20  4  0
  5 27  4  0
  6 12  4  0
  7 24  4  0
  7 25  4  0
  8 12  4  0
  9 15  1  0
  9 21  1  0
 10 14  4  0
 10 32  4  0
 11 20  4  0
 11 22  4  0
 11 30  1  0
 12 26  1  0
 13 14  4  0
 13 17  1  0
 13 24  4  0
 14 17  1  0
 15 28  4  0
 16 26  1  0
 18 21  4  0
 18 34  4  0
 19 32  1  0
 21 31  4  0
 22 29  4  0
 23 30  4  0
 25 32  4  0
 27 29  4  0
 28 33  4  0
 30 33  4  0
M  END
$$$$

 Created by Python create_sdf_string function

 34 82  0  0  0  0  0  0  0  0999 V2000
   12.6873   -5.7091   21.1621 C   0  0  0  0  0  0  0  0  0  0  0  0
    8.1798   -7.2819   16.4748 C   0  0  0  0  0  0  0  0  0  0  0  0
    3.0644   -9.6120   15.9849 C   0  0  0  0  0  0  0  0  0  0  0  0
   11.9905   -3.1315   22.6149 C   0  0  0  0  0  0  0  0  0  0  0  0
   10.7054   -3.7382   16.6222 C   0  0  0  0  0  0  0  0  0  0  0  0
   13.0750   -4.6790   22.2975 C   0  0  0  0  0  0  0  0  0  0  0  0
    5.6637   -9.0163   15.0555 C   0  0  0  0  0  0  0  0  0  0  0  0
   10.4119   -6.0410   18.9848 P   0  0  0  0  0  0  0  0  0  0  0  0
    1.3685  -10.8196   19.2568 C   0  0  0  0  0  0  0  0  0  0  0  0
   10.1305   -5.4737   16.9860 C   0  0  0  0  0  0  0  0  0  0  0  0
    9.5425   -5.7240   18.4053 C   0  0  0  0  0  0  0  0  0  0  0  0
    4.5186   -9.9583   16.3912 C   0  0  0  0  0  0  0  0  0  0  0  0
   13.4020   -4.4941   25.8019 C   0  0  0  0  0  0  0  0  0  0  0  0
    9.6603   -5.9041   17.1544 C   0  0  0  0  0  0  0  0  0  0  0  0
    5.5844   -7.1526   16.7641 C   0  0  0  0  0  0  0  0  0  0  0  0
   11.8935   -4.2918   20.8807 C   0  0  0  0  0  0  0  0  0  0  0  0
    2.0539  -11.9296   20.6945 C   0  0  0  0  0  0  0  0  0  0  0  0
    6.1149   -8.2586   16.0767 N   0  0  0  0  0  0  0  0  0  0  0  0
   -0.0949  -10.7791   18.8179 C   0  0  0  0  0  0  0  0  0  0  0  0
    9.6619   -4.3768   16.1271 C   0  0  0  0  0  0  0  0  0  0  0  0
   11.6604   -3.0673   18.6574 N   0  0  0  0  0  0  0  0  0  0  0  0
   13.5545   -4.3279   24.2449 C   0  0  0  0  0  0  0  0  0  0  0  0
    0.0709  -11.7850   20.7479 C   0  0  0  0  0  0  0  0  0  0  0  0
    4.6710  -10.3412   17.6076 C   0  0  0  0  0  0  0  0  0  0  0  0
    2.6102  -10.3859   18.1083 C   0  0  0  0  0  0  0  0  0  0  0  0
    8.2477   -8.1908   15.9952 C   0  0  0  0  0  0  0  0  0  0  0  0
   11.1904   -4.1941   19.0613 C   0  0  0  0  0  0  0  0  0  0  0  0
    4.1414  -10.8715   18.3427 N   0  0  0  0  0  0  0  0  0  0  0  0
   11.4169   -3.6192   21.0043 He  0  0  0  0  0  0  0  0  0  0  0  0
    1.2418  -12.5748   21.4357 He  0  0  0  0  0  0  0  0  0  0  0  0
   12.7608   -3.9480   23.6349 He  0  0  0  0  0  0  0  0  0  0  0  0
    2.5864   -9.7112   17.5670 He  0  0  0  0  0  0  0  0  0  0  0  0
   -0.2011  -11.6911   19.5737 He  0  0  0  0  0  0  0  0  0  0  0  0
    6.9679   -6.5116   16.9929 He  0  0  0  0  0  0  0  0  0  0  0  0
  1  6  4  0
  1 11  3  0
  1 13  4  0
  1 16  4  0
  1 22  3  0
  2  3  4  0
  2 13  4  0
  2 14  1  0
  2 17  4  0
  2 24  3  0
  2 25  1  0
  2 26  1  0
  2 28  1  0
  3 11  1  0
  3 12  4  0
  3 20  3  0
  3 26  2  0
  4 11  4  0
  4 12  4  0
  4 22  4  0
  5  7  1  0
  5 10  1  0
  5 15  4  0
  5 17  1  0
  5 18  4  0
  5 19  1  0
  5 20  4  0
  5 21  4  0
  5 25  1  0
  5 26  1  0
  5 28  2  0
  6 10  1  0
  6 14  1  0
  6 26  3  0
  6 27  4  0
  7 11  4  0
  7 15  4  0
  7 18  1  0
  7 27  3  0
  8  9  4  0
  8 10  3  0
  8 15  4  0
  8 19  3  0
  8 27  4  0
  9 12  3  0
  9 13  3  0
  9 15  4  0
  9 17  4  0
  9 19  4  0
  9 25  1  0
 10 11  4  0
 10 14  3  0
 10 16  4  0
 10 20  4  0
 11 14  1  0
 11 22  3  0
 11 23  1  0
 11 25  2  0
 12 14  2  0
 12 15  4  0
 12 19  1  0
 12 23  2  0
 12 24  3  0
 12 25  2  0
 13 18  2  0
 13 22  1  0
 15 18  2  0
 15 20  1  0
 15 28  2  0
 16 18  4  0
 16 25  4  0
 16 27  1  0
 17 21  3  0
 18 22  1  0
 18 25  1  0
 18 26  4  0
 19 21  2  0
 19 23  3  0
 22 25  1  0
 23 27  3  0
 24 28  4  0
 25 28  4  0
M  END
$$$$

 Created by Python create_sdf_string function

 34 39  0  0  0  0  0  0  0  0999 V2000
   12.6167   -5.2191   21.0137 C   0  0  0  0  0  0  0  0  0  0  0  0
    8.0668   -7.1047   16.6538 C   0  0  0  0  0  0  0  0  0  0  0  0
   11.3991   -3.2942   21.4411 C   0  0  0  0  0  0  0  0  0  0  0  0
    3.1900   -9.3842   16.3027 C   0  0  0  0  0  0  0  0  0  0  0  0
    1.1663  -12.2017   21.2014 C   0  0  0  0  0  0  0  0  0  0  0  0
   11.8759   -3.1678   22.7160 C   0  0  0  0  0  0  0  0  0  0  0  0
   10.7780   -3.4751   17.1027 C   0  0  0  0  0  0  0  0  0  0  0  0
   13.1874   -5.1850   22.3741 C   0  0  0  0  0  0  0  0  0  0  0  0
    5.5588   -9.3474   15.5117 C   0  0  0  0  0  0  0  0  0  0  0  0
   10.5117   -5.6120   19.2796 C   0  0  0  0  0  0  0  0  0  0  0  0
    1.6611  -11.1151   19.1322 C   0  0  0  0  0  0  0  0  0  0  0  0
   12.7570   -4.1276   23.1018 C   0  0  0  0  0  0  0  0  0  0  0  0
    9.6812   -5.2921   17.0635 C   0  0  0  0  0  0  0  0  0  0  0  0
    9.8053   -5.8454   17.9667 C   0  0  0  0  0  0  0  0  0  0  0  0
    4.5532   -9.6453   16.4709 C   0  0  0  0  0  0  0  0  0  0  0  0
   13.3042   -4.3994   25.4466 C   0  0  0  0  0  0  0  0  0  0  0  0
    9.3750   -6.4434   16.9492 C   0  0  0  0  0  0  0  0  0  0  0  0
    5.9600   -7.2550   16.6875 C   0  0  0  0  0  0  0  0  0  0  0  0
   11.7168   -4.3125   20.6244 C   0  0  0  0  0  0  0  0  0  0  0  0
    2.0714  -11.7687   20.2614 C   0  0  0  0  0  0  0  0  0  0  0  0
    6.4837   -8.3066   15.9643 N   0  0  0  0  0  0  0  0  0  0  0  0
    0.2717  -10.9706   18.9118 C   0  0  0  0  0  0  0  0  0  0  0  0
    2.2789   -9.7988   17.1394 N   0  0  0  0  0  0  0  0  0  0  0  0
    9.8881   -4.3025   16.2512 C   0  0  0  0  0  0  0  0  0  0  0  0
   11.2211   -3.5458   18.4424 N   0  0  0  0  0  0  0  0  0  0  0  0
   13.3552   -3.9733   24.3096 C   0  0  0  0  0  0  0  0  0  0  0  0
   -0.1380  -12.0904   20.9571 C   0  0  0  0  0  0  0  0  0  0  0  0
    4.7995  -10.3441   17.6199 C   0  0  0  0  0  0  0  0  0  0  0  0
   -0.6215  -11.4788   19.8893 C   0  0  0  0  0  0  0  0  0  0  0  0
    2.6215  -10.5327   18.2464 C   0  0  0  0  0  0  0  0  0  0  0  0
    7.7876   -8.2626   15.8817 C   0  0  0  0  0  0  0  0  0  0  0  0
   11.1476   -4.4311   19.3861 C   0  0  0  0  0  0  0  0  0  0  0  0
    3.9461  -10.7400   18.4988 N   0  0  0  0  0  0  0  0  0  0  0  0
    7.0034   -6.5640   17.1343 C   0  0  0  0  0  0  0  0  0  0  0  0
  1  8  4  0
  1 19  4  0
  2 17  1  0
  2 31  4  0
  2 34  4  0
  3  6  4  0
  3 19  4  0
  4 15  4  0
  4 23  4  0
  5 20  4  0
  5 27  4  0
  6 12  4  0
  7 24  4  0
  7 25  4  0
  8 12  4  0
  9 15  1  0
  9 21  1  0
 10 14  4  0
 10 32  4  0
 11 20  4  0
 11 22  4  0
 11 30  1  0
 12 26  1  0
 13 14  4  0
 13 17  1  0
 13 24  4  0
 14 17  1  0
 15 28  4  0
 16 26  1  0
 18 21  4  0
 18 34  4  0
 19 32  1  0
 21 31  4  0
 22 29  4  0
 23 30  4  0
 25 32  4  0
 27 29  4  0
 28 33  4  0
 30 33  4  0
M  END
$$$$

 Created by Python create_sdf_string function

 34 65  0  0  0  0  0  0  0  0999 V2000
   12.7877   -5.3268   21.1529 F   0  0  0  0  0  0  0  0  0  0  0  0
    8.1896   -6.7956   16.9127 C   0  0  0  0  0  0  0  0  0  0  0  0
   10.9517   -3.5248   21.6044 C   0  0  0  0  0  0  0  0  0  0  0  0
    2.9639   -9.4320   16.1577 C   0  0  0  0  0  0  0  0  0  0  0  0
    1.2859  -11.8040   21.0192 C   0  0  0  0  0  0  0  0  0  0  0  0
   12.1849   -3.1980   22.7985 C   0  0  0  0  0  0  0  0  0  0  0  0
   11.2284   -3.6958   16.7180 F   0  0  0  0  0  0  0  0  0  0  0  0
   13.4540   -5.2787   22.5946 C   0  0  0  0  0  0  0  0  0  0  0  0
    4.5362   -8.8118   15.2265 C   0  0  0  0  0  0  0  0  0  0  0  0
    9.9305   -5.6090   19.2039 C   0  0  0  0  0  0  0  0  0  0  0  0
    1.9713  -10.8759   19.0783 C   0  0  0  0  0  0  0  0  0  0  0  0
   11.7493   -4.2195   22.6387 C   0  0  0  0  0  0  0  0  0  0  0  0
    9.3057   -5.0293   17.2656 C   0  0  0  0  0  0  0  0  0  0  0  0
    4.3993   -9.7783   15.8520 C   0  0  0  0  0  0  0  0  0  0  0  0
   10.0211   -6.4758   17.1298 C   0  0  0  0  0  0  0  0  0  0  0  0
   12.0260   -3.9456   20.4860 C   0  0  0  0  0  0  0  0  0  0  0  0
    2.7221  -12.0603   20.0107 C   0  0  0  0  0  0  0  0  0  0  0  0
    7.0869   -7.8602   15.9730 N   0  0  0  0  0  0  0  0  0  0  0  0
    0.2142  -11.1644   18.9034 C   0  0  0  0  0  0  0  0  0  0  0  0
    2.8941  -10.4923   17.8349 N   0  0  0  0  0  0  0  0  0  0  0  0
   10.0416   -4.3633   16.3821 C   0  0  0  0  0  0  0  0  0  0  0  0
   11.1763   -2.9539   19.1548 N   0  0  0  0  0  0  0  0  0  0  0  0
   13.3917   -4.0031   24.2486 C   0  0  0  0  0  0  0  0  0  0  0  0
    0.0636  -12.0864   21.2357 C   0  0  0  0  0  0  0  0  0  0  0  0
    4.4301  -10.2634   17.7418 C   0  0  0  0  0  0  0  0  0  0  0  0
   -0.9944  -11.7945   19.5916 C   0  0  0  0  0  0  0  0  0  0  0  0
    7.4012   -8.3041   16.0934 C   0  0  0  0  0  0  0  0  0  0  0  0
   11.2936   -4.6985   19.4563 C   0  0  0  0  0  0  0  0  0  0  0  0
    3.8519  -10.7287   18.6402 N   0  0  0  0  0  0  0  0  0  0  0  0
    7.7467   -6.3112   16.6803 C   0  0  0  0  0  0  0  0  0  0  0  0
    9.3794   -5.5101   17.4378 He  0  0  0  0  0  0  0  0  0  0  0  0
   13.3161   -4.2013   24.7598 He  0  0  0  0  0  0  0  0  0  0  0  0
    6.0881   -6.9259   16.7821 He  0  0  0  0  0  0  0  0  0  0  0  0
    2.7988  -10.5312   18.3711 He  0  0  0  0  0  0  0  0  0  0  0  0
  1  8  4  0
  1  9  4  0
  1 11  2  0
  1 16  4  0
  2  7  4  0
  2 15  2  0
  2 27  4  0
  2 30  4  0
  3 16  4  0
  3 18  2  0
  3 29  4  0
  4 29  3  0
  5  7  1  0
  5 12  3  0
  5 14  4  0
  5 17  4  0
  5 19  4  0
  5 26  4  0
  6  8  2  0
  6 11  3  0
  6 27  4  0
  7  8  3  0
  7 18  2  0
  7 21  4  0
  7 22  4  0
  7 24  1  0
  8  9  4  0
  9 12  4  0
  9 14  1  0
  9 16  3  0
  9 20  2  0
 10 14  3  0
 10 24  4  0
 11 17  4  0
 11 19  4  0
 11 27  2  0
 12 16  4  0
 12 23  1  0
 12 25  2  0
 12 28  1  0
 13 21  4  0
 14 17  4  0
 14 21  2  0
 14 25  4  0
 14 30  1  0
 15 16  4  0
 15 28  3  0
 16 21  3  0
 16 25  3  0
 16 28  1  0
 17 22  1  0
 17 27  2  0
 18 21  2  0
 18 24  3  0
 18 26  1  0
 20 25  4  0
 20 29  4  0
 21 26  2  0
 22 26  4  0
 22 28  4  0
 22 30  3  0
 23 26  1  0
 23 30  1  0
 24 26  1  0
 25 29  4  0
M  END
$$$$

 Created by Python create_sdf_string function

 34 38  0  0  0  0  0  0  0  0999 V2000
   12.6203   -5.2106   21.0466 C   0  0  0  0  0  0  0  0  0  0  0  0
    8.1186   -7.1322   16.6955 C   0  0  0  0  0  0  0  0  0  0  0  0
   11.2082   -3.4041   21.6434 C   0  0  0  0  0  0  0  0  0  0  0  0
    3.0323   -9.3433   16.3699 C   0  0  0  0  0  0  0  0  0  0  0  0
    1.2425  -12.2006   21.3152 C   0  0  0  0  0  0  0  0  0  0  0  0
   11.6649   -3.3072   22.8986 C   0  0  0  0  0  0  0  0  0  0  0  0
   10.9855   -3.2225   17.0820 C   0  0  0  0  0  0  0  0  0  0  0  0
   13.2442   -5.1320   22.3792 C   0  0  0  0  0  0  0  0  0  0  0  0
    5.3255   -8.9296   15.3835 C   0  0  0  0  0  0  0  0  0  0  0  0
   10.3528   -5.4864   19.3366 C   0  0  0  0  0  0  0  0  0  0  0  0
    1.7664  -11.2210   19.1909 C   0  0  0  0  0  0  0  0  0  0  0  0
   12.6810   -4.1780   23.1728 C   0  0  0  0  0  0  0  0  0  0  0  0
    9.7557   -4.8917   16.9336 C   0  0  0  0  0  0  0  0  0  0  0  0
    9.7778   -5.6280   17.9516 C   0  0  0  0  0  0  0  0  0  0  0  0
    4.4279   -9.4273   16.4489 C   0  0  0  0  0  0  0  0  0  0  0  0
   13.4825   -4.1256   25.2549 N   0  0  0  0  0  0  0  0  0  0  0  0
    9.3763   -6.7089   17.3149 C   0  0  0  0  0  0  0  0  0  0  0  0
    6.0258   -7.0966   16.3386 N   0  0  0  0  0  0  0  0  0  0  0  0
   11.6394   -4.3570   20.7547 C   0  0  0  0  0  0  0  0  0  0  0  0
    2.1541  -11.8105   20.2788 C   0  0  0  0  0  0  0  0  0  0  0  0
    6.4852   -8.2675   15.8629 N   0  0  0  0  0  0  0  0  0  0  0  0
    0.3628  -11.1878   18.9538 C   0  0  0  0  0  0  0  0  0  0  0  0
    2.2892   -9.8817   17.1817 N   0  0  0  0  0  0  0  0  0  0  0  0
   10.2168   -4.1127   16.3537 C   0  0  0  0  0  0  0  0  0  0  0  0
   11.2491   -3.5151   18.5074 N   0  0  0  0  0  0  0  0  0  0  0  0
   13.1778   -4.1341   24.4081 C   0  0  0  0  0  0  0  0  0  0  0  0
   -0.0428  -12.0599   21.0697 C   0  0  0  0  0  0  0  0  0  0  0  0
    4.8814  -10.1456   17.6013 C   0  0  0  0  0  0  0  0  0  0  0  0
   -0.5361  -11.5819   19.9230 C   0  0  0  0  0  0  0  0  0  0  0  0
    2.6603  -10.5923   18.3038 C   0  0  0  0  0  0  0  0  0  0  0  0
    7.7361   -8.2703   16.0994 C   0  0  0  0  0  0  0  0  0  0  0  0
   11.1013   -4.4118   19.4173 C   0  0  0  0  0  0  0  0  0  0  0  0
    4.0798  -10.6245   18.4142 N   0  0  0  0  0  0  0  0  0  0  0  0
    7.0906   -6.4274   16.7884 C   0  0  0  0  0  0  0  0  0  0  0  0
  1  8  4  0
  1 19  4  0
  2 17  1  0
  2 31  4  0
  2 34  4  0
  3  6  4  0
  3 19  4  0
  4 15  4  0
  4 23  4  0
  5 20  4  0
  5 27  4  0
  6 12  4  0
  7 24  4  0
  7 25  4  0
  8 12  4  0
  9 15  1  0
  9 21  1  0
 10 14  4  0
 10 32  4  0
 11 20  4  0
 11 22  4  0
 11 30  1  0
 12 26  1  0
 13 14  4  0
 13 24  4  0
 14 17  1  0
 15 28  4  0
 16 26  1  0
 18 21  4  0
 18 34  4  0
 19 32  1  0
 21 31  4  0
 22 29  4  0
 23 30  4  0
 25 32  4  0
 27 29  4  0
 28 33  4  0
 30 33  4  0
M  END
$$$$

 Created by Python create_sdf_string function

 34 56  0  0  0  0  0  0  0  0999 V2000
   12.4678   -5.0761   21.0911 C   0  0  0  0  0  0  0  0  0  0  0  0
    8.1887   -7.5504   16.2504 C   0  0  0  0  0  0  0  0  0  0  0  0
    1.3771  -11.1468   21.7452 C   0  0  0  0  0  0  0  0  0  0  0  0
   11.8678   -3.1496   22.6540 C   0  0  0  0  0  0  0  0  0  0  0  0
   10.5342   -3.4669   17.4255 C   0  0  0  0  0  0  0  0  0  0  0  0
   12.7048   -5.3160   22.7607 C   0  0  0  0  0  0  0  0  0  0  0  0
    4.8503   -9.0284   14.9417 C   0  0  0  0  0  0  0  0  0  0  0  0
    9.7870   -5.6642   19.7270 F   0  0  0  0  0  0  0  0  0  0  0  0
    1.8529  -10.9606   19.2436 C   0  0  0  0  0  0  0  0  0  0  0  0
    9.6155   -5.3055   17.1175 C   0  0  0  0  0  0  0  0  0  0  0  0
    3.7309   -9.4022   16.0888 Cl  0  0  0  0  0  0  0  0  0  0  0  0
    9.1322   -6.8732   17.1947 C   0  0  0  0  0  0  0  0  0  0  0  0
    6.2557   -6.7168   17.0021 N   0  0  0  0  0  0  0  0  0  0  0  0
    1.5900  -11.9413   19.9908 C   0  0  0  0  0  0  0  0  0  0  0  0
    0.5082  -11.2291   19.3104 C   0  0  0  0  0  0  0  0  0  0  0  0
    2.2219  -10.1533   18.0124 N   0  0  0  0  0  0  0  0  0  0  0  0
   10.2856   -3.9745   16.5764 C   0  0  0  0  0  0  0  0  0  0  0  0
   10.9723   -3.6681   18.4503 N   0  0  0  0  0  0  0  0  0  0  0  0
   12.9784   -4.1735   24.3491 C   0  0  0  0  0  0  0  0  0  0  0  0
   -0.0029  -12.0917   21.0089 C   0  0  0  0  0  0  0  0  0  0  0  0
    4.8012  -10.1642   17.5118 C   0  0  0  0  0  0  0  0  0  0  0  0
   -0.2134  -11.6911   19.9378 C   0  0  0  0  0  0  0  0  0  0  0  0
    3.0093  -10.1947   18.1981 F   0  0  0  0  0  0  0  0  0  0  0  0
   11.1287   -4.5358   19.3125 C   0  0  0  0  0  0  0  0  0  0  0  0
    4.0625  -10.2817   18.2142 N   0  0  0  0  0  0  0  0  0  0  0  0
    6.5261   -5.7830   16.9846 C   0  0  0  0  0  0  0  0  0  0  0  0
   10.4641   -4.1512   21.4715 He  0  0  0  0  0  0  0  0  0  0  0  0
    2.8234   -9.4221   16.5079 He  0  0  0  0  0  0  0  0  0  0  0  0
   12.5935   -4.6448   23.0104 He  0  0  0  0  0  0  0  0  0  0  0  0
    9.5012   -5.3460   17.7084 He  0  0  0  0  0  0  0  0  0  0  0  0
   12.9850   -3.8525   25.4385 He  0  0  0  0  0  0  0  0  0  0  0  0
   11.8162   -4.0552   21.3134 He  0  0  0  0  0  0  0  0  0  0  0  0
    5.8134   -8.4327   15.9395 He  0  0  0  0  0  0  0  0  0  0  0  0
    8.0916   -8.0164   15.7554 He  0  0  0  0  0  0  0  0  0  0  0  0
  1  6  4  0
  1 14  1  0
  1 20  4  0
  1 22  4  0
  2 12  1  0
  2 14  3  0
  2 22  2  0
  2 24  1  0
  2 25  4  0
  2 26  4  0
  3  7  3  0
  3 14  4  0
  3 17  2  0
  3 20  4  0
  3 24  3  0
  3 25  2  0
  4  9  1  0
  4 14  1  0
  5 17  4  0
  5 18  4  0
  5 19  4  0
  6 23  3  0
  7 10  1  0
  7 11  1  0
  7 20  3  0
  7 22  1  0
  7 25  1  0
  8 12  1  0
  8 15  4  0
  8 19  4  0
  9 15  4  0
  9 18  2  0
 10 15  4  0
 10 24  2  0
 10 25  1  0
 11 13  1  0
 11 21  4  0
 12 14  2  0
 12 17  2  0
 13 17  4  0
 13 26  4  0
 14 18  1  0
 15 16  2  0
 15 22  4  0
 15 25  2  0
 16 17  1  0
 16 18  1  0
 16 24  1  0
 16 26  2  0
 18 24  3  0
 18 26  3  0
 20 24  3  0
 21 25  4  0
 22 25  4  0
 22 26  1  0
 23 25  4  0
M  END
$$$$

 Created by Python create_sdf_string function

 34 39  0  0  0  0  0  0  0  0999 V2000
   12.4668   -5.2317   21.1487 C   0  0  0  0  0  0  0  0  0  0  0  0
    7.9373   -7.2283   16.6963 C   0  0  0  0  0  0  0  0  0  0  0  0
   10.9062   -3.5764   21.7214 C   0  0  0  0  0  0  0  0  0  0  0  0
    2.8775   -9.3140   16.3104 C   0  0  0  0  0  0  0  0  0  0  0  0
    1.3072  -11.9176   21.4427 C   0  0  0  0  0  0  0  0  0  0  0  0
   11.3324   -3.5218   22.9944 C   0  0  0  0  0  0  0  0  0  0  0  0
   10.7284   -3.5017   17.3492 C   0  0  0  0  0  0  0  0  0  0  0  0
   13.0877   -5.1493   22.4344 C   0  0  0  0  0  0  0  0  0  0  0  0
    5.0507   -8.9635   15.2934 C   0  0  0  0  0  0  0  0  0  0  0  0
   10.1743   -5.6070   19.1712 C   0  0  0  0  0  0  0  0  0  0  0  0
    1.7288  -11.1133   19.2455 C   0  0  0  0  0  0  0  0  0  0  0  0
   12.4439   -4.2845   23.2499 C   0  0  0  0  0  0  0  0  0  0  0  0
    9.8578   -4.8002   16.8567 C   0  0  0  0  0  0  0  0  0  0  0  0
    9.6839   -5.8168   17.7529 C   0  0  0  0  0  0  0  0  0  0  0  0
    4.2757   -9.4301   16.3721 C   0  0  0  0  0  0  0  0  0  0  0  0
   12.9068   -3.7669   25.5053 N   0  0  0  0  0  0  0  0  0  0  0  0
    9.2909   -7.0954   17.4141 C   0  0  0  0  0  0  0  0  0  0  0  0
    5.8635   -7.0009   16.4640 N   0  0  0  0  0  0  0  0  0  0  0  0
   11.4277   -4.4833   20.8429 C   0  0  0  0  0  0  0  0  0  0  0  0
    2.1442  -11.5869   20.4247 C   0  0  0  0  0  0  0  0  0  0  0  0
    6.1577   -8.1048   15.8072 C   0  0  0  0  0  0  0  0  0  0  0  0
    0.3835  -11.1877   18.9893 C   0  0  0  0  0  0  0  0  0  0  0  0
    2.1429   -9.7764   17.1502 N   0  0  0  0  0  0  0  0  0  0  0  0
   10.1745   -3.8508   16.3255 C   0  0  0  0  0  0  0  0  0  0  0  0
   11.0608   -3.5491   18.6643 N   0  0  0  0  0  0  0  0  0  0  0  0
   12.9215   -4.1450   24.5123 C   0  0  0  0  0  0  0  0  0  0  0  0
    0.0060  -11.8500   21.2210 C   0  0  0  0  0  0  0  0  0  0  0  0
    4.7796  -10.0553   17.5391 C   0  0  0  0  0  0  0  0  0  0  0  0
   -0.4797  -11.5520   20.0196 C   0  0  0  0  0  0  0  0  0  0  0  0
    2.6616  -10.4525   18.2952 C   0  0  0  0  0  0  0  0  0  0  0  0
    7.6079   -8.3204   15.8396 C   0  0  0  0  0  0  0  0  0  0  0  0
   10.9182   -4.5218   19.5740 C   0  0  0  0  0  0  0  0  0  0  0  0
    3.9806  -10.5605   18.4478 N   0  0  0  0  0  0  0  0  0  0  0  0
    6.9191   -6.4443   16.9865 C   0  0  0  0  0  0  0  0  0  0  0  0
  1  8  4  0
  1 19  4  0
  2 17  1  0
  2 31  4  0
  2 34  4  0
  3  6  4  0
  3 19  4  0
  4 15  4  0
  4 23  4  0
  5 20  4  0
  5 27  4  0
  6 12  4  0
  7 13  4  0
  7 24  4  0
  7 25  4  0
  8 12  4  0
  9 15  1  0
  9 21  1  0
 10 14  4  0
 10 32  4  0
 11 20  4  0
 11 22  4  0
 11 30  1  0
 12 26  1  0
 13 14  4  0
 13 24  4  0
 14 17  1  0
 15 28  4  0
 16 26  3  0
 18 21  4  0
 18 34  4  0
 19 32  1  0
 21 31  4  0
 22 29  4  0
 23 30  4  0
 25 32  4  0
 27 29  4  0
 28 33  4  0
 30 33  4  0
M  END
$$$$

 Created by Python create_sdf_string function

 34 95  0  0  0  0  0  0  0  0999 V2000
   12.4562   -5.0614   21.2759 C   0  0  0  0  0  0  0  0  0  0  0  0
    8.3539   -7.3406   16.8203 C   0  0  0  0  0  0  0  0  0  0  0  0
   10.4308   -3.5424   21.3633 C   0  0  0  0  0  0  0  0  0  0  0  0
    2.5146   -9.0450   16.4644 C   0  0  0  0  0  0  0  0  0  0  0  0
    1.5117  -12.4864   21.6339 O   0  0  0  0  0  0  0  0  0  0  0  0
   11.3795   -3.6012   22.9688 P   0  0  0  0  0  0  0  0  0  0  0  0
   10.1471   -3.8244   17.1404 C   0  0  0  0  0  0  0  0  0  0  0  0
   13.1445   -5.0834   23.1838 C   0  0  0  0  0  0  0  0  0  0  0  0
    5.0728   -9.0273   15.1068 C   0  0  0  0  0  0  0  0  0  0  0  0
    9.9150   -5.4139   19.0748 C   0  0  0  0  0  0  0  0  0  0  0  0
    1.7048  -11.1687   18.9725 C   0  0  0  0  0  0  0  0  0  0  0  0
   12.4791   -4.8975   23.4178 C   0  0  0  0  0  0  0  0  0  0  0  0
   10.2395   -6.0356   17.1236 C   0  0  0  0  0  0  0  0  0  0  0  0
   10.0579   -6.0457   18.2455 C   0  0  0  0  0  0  0  0  0  0  0  0
    4.3949   -9.7322   16.6315 C   0  0  0  0  0  0  0  0  0  0  0  0
   12.8516   -2.8096   25.0525 N   0  0  0  0  0  0  0  0  0  0  0  0
    6.0272   -6.9893   16.5921 N   0  0  0  0  0  0  0  0  0  0  0  0
   10.9755   -4.8379   20.4411 C   0  0  0  0  0  0  0  0  0  0  0  0
    6.1757   -8.3150   15.5727 F   0  0  0  0  0  0  0  0  0  0  0  0
    0.3477  -11.5292   19.2953 C   0  0  0  0  0  0  0  0  0  0  0  0
    2.8551   -9.5655   16.6845 N   0  0  0  0  0  0  0  0  0  0  0  0
   10.0507   -3.9545   16.0802 C   0  0  0  0  0  0  0  0  0  0  0  0
   11.3768   -3.6988   18.3543 N   0  0  0  0  0  0  0  0  0  0  0  0
   12.9539   -3.9308   24.1795 S   0  0  0  0  0  0  0  0  0  0  0  0
    0.2285  -11.5853   21.0430 C   0  0  0  0  0  0  0  0  0  0  0  0
    4.8108  -10.0595   17.6606 C   0  0  0  0  0  0  0  0  0  0  0  0
   -0.4176  -10.8394   19.7559 C   0  0  0  0  0  0  0  0  0  0  0  0
    2.5756  -10.1625   18.0793 C   0  0  0  0  0  0  0  0  0  0  0  0
   10.7276   -4.4580   19.6674 C   0  0  0  0  0  0  0  0  0  0  0  0
    3.7381  -10.4054   18.6425 N   0  0  0  0  0  0  0  0  0  0  0  0
    6.8355   -6.5327   16.2695 C   0  0  0  0  0  0  0  0  0  0  0  0
    9.2949   -6.7231   17.4167 He  0  0  0  0  0  0  0  0  0  0  0  0
    2.1903  -11.4138   20.2661 He  0  0  0  0  0  0  0  0  0  0  0  0
    7.4177   -8.2902   16.0716 He  0  0  0  0  0  0  0  0  0  0  0  0
  1  8  4  0
  1  9  4  0
  1 16  4  0
  1 18  4  0
  1 28  4  0
  2 10  1  0
  2 14  4  0
  3  6  4  0
  3 16  2  0
  3 18  4  0
  4  5  3  0
  4  7  2  0
  4  9  1  0
  4 13  1  0
  4 15  4  0
  4 17  4  0
  4 18  1  0
  4 21  4  0
  4 25  1  0
  4 31  4  0
  5  6  4  0
  5 12  4  0
  5 23  3  0
  5 24  2  0
  5 25  3  0
  6 12  4  0
  6 24  3  0
  7 13  4  0
  7 21  4  0
  7 22  1  0
  7 28  3  0
  8 11  4  0
  8 12  3  0
  8 13  4  0
  8 18  4  0
  8 28  4  0
  8 30  4  0
  9 14  4  0
  9 15  1  0
  9 19  1  0
  9 25  3  0
  9 27  2  0
  9 28  1  0
 10 16  1  0
 10 19  2  0
 10 25  2  0
 10 28  4  0
 10 29  4  0
 11 16  3  0
 11 20  4  0
 11 28  1  0
 12 17  4  0
 12 23  3  0
 13 14  4  0
 13 15  2  0
 13 18  1  0
 13 22  4  0
 13 29  1  0
 14 23  2  0
 14 28  4  0
 15 26  4  0
 15 28  1  0
 16 24  3  0
 16 29  1  0
 16 31  4  0
 17 19  4  0
 17 20  4  0
 17 26  3  0
 18 19  1  0
 18 24  2  0
 18 25  1  0
 18 28  3  0
 18 29  1  0
 18 30  4  0
 19 20  2  0
 19 22  1  0
 19 26  2  0
 19 28  3  0
 19 31  4  0
 20 21  1  0
 20 27  4  0
 21 28  4  0
 21 29  4  0
 22 27  3  0
 22 28  2  0
 23 25  2  0
 23 28  2  0
 23 29  4  0
 23 31  1  0
 24 26  2  0
 24 30  3  0
 25 27  4  0
 26 30  4  0
 28 30  4  0
 28 31  1  0
M  END
$$$$

 Created by Python create_sdf_string function

 34 38  0  0  0  0  0  0  0  0999 V2000
   12.4326   -5.1619   21.1326 C   0  0  0  0  0  0  0  0  0  0  0  0
    8.0676   -7.2963   16.7167 C   0  0  0  0  0  0  0  0  0  0  0  0
   10.6393   -3.7266   21.6836 C   0  0  0  0  0  0  0  0  0  0  0  0
    3.0195   -9.2522   16.2874 C   0  0  0  0  0  0  0  0  0  0  0  0
    1.3434  -11.9625   21.2969 C   0  0  0  0  0  0  0  0  0  0  0  0
   11.0847   -3.5594   22.9514 C   0  0  0  0  0  0  0  0  0  0  0  0
   10.5442   -4.0333   17.1893 C   0  0  0  0  0  0  0  0  0  0  0  0
   12.9655   -5.0379   22.4252 C   0  0  0  0  0  0  0  0  0  0  0  0
    5.3021   -9.1242   15.3940 C   0  0  0  0  0  0  0  0  0  0  0  0
   10.1794   -5.8840   19.2196 C   0  0  0  0  0  0  0  0  0  0  0  0
    1.7056  -11.0412   19.1285 C   0  0  0  0  0  0  0  0  0  0  0  0
   12.2697   -4.1722   23.2328 C   0  0  0  0  0  0  0  0  0  0  0  0
   10.0488   -5.1671   16.9659 C   0  0  0  0  0  0  0  0  0  0  0  0
    9.7535   -6.0408   17.8986 C   0  0  0  0  0  0  0  0  0  0  0  0
    4.4057   -9.4021   16.4145 C   0  0  0  0  0  0  0  0  0  0  0  0
   12.8412   -3.1298   25.2536 N   0  0  0  0  0  0  0  0  0  0  0  0
    9.2072   -7.2477   17.6887 C   0  0  0  0  0  0  0  0  0  0  0  0
    6.0547   -6.8680   16.1061 N   0  0  0  0  0  0  0  0  0  0  0  0
   11.3000   -4.5076   20.7464 C   0  0  0  0  0  0  0  0  0  0  0  0
    2.1753  -11.7435   20.1996 C   0  0  0  0  0  0  0  0  0  0  0  0
    6.3305   -8.1567   15.8956 N   0  0  0  0  0  0  0  0  0  0  0  0
    0.3218  -10.8813   19.0093 C   0  0  0  0  0  0  0  0  0  0  0  0
    2.1959   -9.7819   17.0956 N   0  0  0  0  0  0  0  0  0  0  0  0
   10.3321   -3.1948   15.9864 C   0  0  0  0  0  0  0  0  0  0  0  0
   10.9176   -3.7087   18.5588 N   0  0  0  0  0  0  0  0  0  0  0  0
   12.8061   -3.8647   24.4724 C   0  0  0  0  0  0  0  0  0  0  0  0
    0.0624  -11.7302   21.2019 C   0  0  0  0  0  0  0  0  0  0  0  0
    4.7736  -10.0247   17.6433 C   0  0  0  0  0  0  0  0  0  0  0  0
   -0.5087  -11.2577   20.0375 C   0  0  0  0  0  0  0  0  0  0  0  0
    2.6331  -10.4709   18.2217 C   0  0  0  0  0  0  0  0  0  0  0  0
    7.6738   -8.5284   16.2040 C   0  0  0  0  0  0  0  0  0  0  0  0
   10.8541   -4.6784   19.5024 C   0  0  0  0  0  0  0  0  0  0  0  0
    3.9982  -10.5167   18.4376 N   0  0  0  0  0  0  0  0  0  0  0  0
    7.1316   -6.3575   16.4348 C   0  0  0  0  0  0  0  0  0  0  0  0
  1  8  4  0
  1 19  4  0
  2 17  1  0
  2 31  4  0
  2 34  4  0
  3  6  4  0
  3 19  4  0
  4 15  4  0
  4 23  4  0
  5 20  4  0
  5 27  4  0
  6 12  4  0
  7 13  4  0
  7 24  1  0
  7 25  4  0
  8 12  4  0
  9 15  1  0
  9 21  1  0
 10 14  4  0
 10 32  4  0
 11 20  4  0
 11 22  4  0
 11 30  1  0
 12 26  1  0
 13 14  4  0
 14 17  1  0
 15 28  4  0
 16 26  3  0
 18 21  4  0
 18 34  4  0
 19 32  1  0
 21 31  4  0
 22 29  4  0
 23 30  4  0
 25 32  4  0
 27 29  4  0
 28 33  4  0
 30 33  4  0
M  END
$$$$

 Created by Python create_sdf_string function

 34 70  0  0  0  0  0  0  0  0999 V2000
   12.4975   -5.1624   20.8872 C   0  0  0  0  0  0  0  0  0  0  0  0
   10.9565   -3.9771   21.5888 C   0  0  0  0  0  0  0  0  0  0  0  0
    2.9611   -9.4469   16.1376 C   0  0  0  0  0  0  0  0  0  0  0  0
    1.9496  -11.9191   21.6134 F   0  0  0  0  0  0  0  0  0  0  0  0
   11.3266   -3.6932   22.9031 C   0  0  0  0  0  0  0  0  0  0  0  0
   10.1042   -4.4217   17.4166 F   0  0  0  0  0  0  0  0  0  0  0  0
   12.8867   -4.8746   21.8988 C   0  0  0  0  0  0  0  0  0  0  0  0
    5.2332   -9.5704   15.1841 C   0  0  0  0  0  0  0  0  0  0  0  0
   10.3442   -6.2126   19.5321 O   0  0  0  0  0  0  0  0  0  0  0  0
    1.6929  -11.3720   18.9534 C   0  0  0  0  0  0  0  0  0  0  0  0
   12.7365   -4.3903   24.0483 C   0  0  0  0  0  0  0  0  0  0  0  0
   10.0584   -5.4362   17.1202 C   0  0  0  0  0  0  0  0  0  0  0  0
    9.3778   -5.9620   18.1869 C   0  0  0  0  0  0  0  0  0  0  0  0
    4.3686   -9.2204   16.5682 C   0  0  0  0  0  0  0  0  0  0  0  0
   12.7882   -3.5568   24.8174 F   0  0  0  0  0  0  0  0  0  0  0  0
    9.2889   -7.5271   17.8668 C   0  0  0  0  0  0  0  0  0  0  0  0
    6.2896   -6.9965   16.3116 N   0  0  0  0  0  0  0  0  0  0  0  0
    6.6574   -8.3120   16.1051 N   0  0  0  0  0  0  0  0  0  0  0  0
    0.6920  -10.7182   18.9618 C   0  0  0  0  0  0  0  0  0  0  0  0
    2.4853   -9.2438   17.2590 N   0  0  0  0  0  0  0  0  0  0  0  0
   10.6386   -2.9350   16.1083 C   0  0  0  0  0  0  0  0  0  0  0  0
   12.8037   -3.9440   24.5159 C   0  0  0  0  0  0  0  0  0  0  0  0
    0.0407  -11.7780   20.8620 C   0  0  0  0  0  0  0  0  0  0  0  0
    4.6571  -10.2487   17.4827 C   0  0  0  0  0  0  0  0  0  0  0  0
   -0.4856  -11.1282   19.6257 F   0  0  0  0  0  0  0  0  0  0  0  0
    2.8118  -10.5656   18.2392 C   0  0  0  0  0  0  0  0  0  0  0  0
    8.2966   -8.6968   16.3341 C   0  0  0  0  0  0  0  0  0  0  0  0
   10.9506   -5.0274   19.4988 P   0  0  0  0  0  0  0  0  0  0  0  0
    3.8267  -10.4633   18.5035 N   0  0  0  0  0  0  0  0  0  0  0  0
    6.7993   -6.4478   15.8059 C   0  0  0  0  0  0  0  0  0  0  0  0
    7.8052   -7.0791   16.4103 He  0  0  0  0  0  0  0  0  0  0  0  0
   11.7373   -4.5264   20.9958 He  0  0  0  0  0  0  0  0  0  0  0  0
    2.2164  -11.8632   19.8114 He  0  0  0  0  0  0  0  0  0  0  0  0
   10.5373   -3.5951   18.5030 He  0  0  0  0  0  0  0  0  0  0  0  0
  1  7  4  0
  2  5  2  0
  2 11  1  0
  2 19  3  0
  2 24  4  0
  3  7  4  0
  3  9  4  0
  3 14  4  0
  3 17  1  0
  3 20  4  0
  4 13  4  0
  4 20  2  0
  4 23  4  0
  4 27  1  0
  4 28  3  0
  4 29  2  0
  5  8  1  0
  5 11  4  0
  5 12  4  0
  5 14  4  0
  5 15  4  0
  5 21  3  0
  6  8  4  0
  6  9  3  0
  6 12  4  0
  6 21  1  0
  6 23  2  0
  6 27  1  0
  6 28  1  0
  8 11  4  0
  8 14  1  0
  8 18  2  0
  8 24  2  0
  9 13  4  0
  9 14  4  0
  9 23  1  0
  9 24  3  0
  9 28  4  0
  9 30  1  0
 10 12  3  0
 10 19  4  0
 10 26  1  0
 11 15  2  0
 11 16  1  0
 11 22  1  0
 11 27  4  0
 12 13  4  0
 12 19  4  0
 13 15  3  0
 13 16  1  0
 13 17  2  0
 13 23  1  0
 14 25  1  0
 15 17  3  0
 15 24  3  0
 16 27  2  0
 17 23  1  0
 17 24  2  0
 17 30  4  0
 18 26  1  0
 18 27  4  0
 19 25  4  0
 20 26  4  0
 20 30  4  0
 21 22  3  0
 23 25  4  0
 24 29  4  0
 25 29  4  0
 26 29  4  0
 29 30  1  0
M  END
$$$$

 Created by Python create_sdf_string function

 34 38  0  0  0  0  0  0  0  0999 V2000
   12.6531   -5.1947   21.1184 C   0  0  0  0  0  0  0  0  0  0  0  0
    8.0764   -7.3533   16.6900 C   0  0  0  0  0  0  0  0  0  0  0  0
   10.7744   -3.8080   21.7332 C   0  0  0  0  0  0  0  0  0  0  0  0
    3.1953   -9.1803   16.2583 C   0  0  0  0  0  0  0  0  0  0  0  0
    1.3867  -12.0941   21.1340 C   0  0  0  0  0  0  0  0  0  0  0  0
   11.2522   -3.6637   22.9593 C   0  0  0  0  0  0  0  0  0  0  0  0
   10.2957   -4.0763   17.2934 C   0  0  0  0  0  0  0  0  0  0  0  0
   13.2022   -5.0706   22.3760 C   0  0  0  0  0  0  0  0  0  0  0  0
    5.4359   -9.3877   15.2732 C   0  0  0  0  0  0  0  0  0  0  0  0
   10.3051   -6.0400   19.2388 C   0  0  0  0  0  0  0  0  0  0  0  0
    1.7894  -10.9884   19.0509 C   0  0  0  0  0  0  0  0  0  0  0  0
   12.4374   -4.2560   23.3024 C   0  0  0  0  0  0  0  0  0  0  0  0
    9.5940   -5.1780   17.1500 C   0  0  0  0  0  0  0  0  0  0  0  0
    9.6679   -6.2108   18.0163 C   0  0  0  0  0  0  0  0  0  0  0  0
    4.5420   -9.5237   16.3613 C   0  0  0  0  0  0  0  0  0  0  0  0
   12.7946   -3.5101   25.3470 N   0  0  0  0  0  0  0  0  0  0  0  0
    9.1100   -7.4399   17.7336 C   0  0  0  0  0  0  0  0  0  0  0  0
    6.0815   -7.0853   15.8889 N   0  0  0  0  0  0  0  0  0  0  0  0
   11.4408   -4.5845   20.7849 C   0  0  0  0  0  0  0  0  0  0  0  0
    2.2387  -11.7163   20.1515 C   0  0  0  0  0  0  0  0  0  0  0  0
    6.4587   -8.3377   15.8466 N   0  0  0  0  0  0  0  0  0  0  0  0
    0.4130  -10.8234   18.9049 C   0  0  0  0  0  0  0  0  0  0  0  0
    2.3122   -9.6583   17.0573 N   0  0  0  0  0  0  0  0  0  0  0  0
   10.5872   -3.1979   16.2872 C   0  0  0  0  0  0  0  0  0  0  0  0
   10.8476   -3.8766   18.5555 C   0  0  0  0  0  0  0  0  0  0  0  0
   12.9045   -4.0588   24.5335 C   0  0  0  0  0  0  0  0  0  0  0  0
    0.0912  -11.7890   21.0523 C   0  0  0  0  0  0  0  0  0  0  0  0
    4.8446  -10.2429   17.5782 C   0  0  0  0  0  0  0  0  0  0  0  0
   -0.4169  -11.1970   19.9515 C   0  0  0  0  0  0  0  0  0  0  0  0
    2.6889  -10.4323   18.1723 C   0  0  0  0  0  0  0  0  0  0  0  0
    7.7143   -8.5058   16.2650 C   0  0  0  0  0  0  0  0  0  0  0  0
   10.8738   -4.8083   19.5469 C   0  0  0  0  0  0  0  0  0  0  0  0
    4.0444  -10.6581   18.3688 N   0  0  0  0  0  0  0  0  0  0  0  0
    7.0707   -6.3790   16.1564 C   0  0  0  0  0  0  0  0  0  0  0  0
  1  8  4  0
  1 19  4  0
  2 17  1  0
  2 31  4  0
  2 34  4  0
  3  6  4  0
  3 19  4  0
  4 15  4  0
  4 23  4  0
  5 20  4  0
  5 27  4  0
  6 12  4  0
  7 13  4  0
  7 24  1  0
  7 25  4  0
  8 12  4  0
  9 15  1  0
  9 21  1  0
 10 14  4  0
 10 32  4  0
 11 20  4  0
 11 22  4  0
 11 30  1  0
 12 26  1  0
 13 14  4  0
 14 17  1  0
 15 28  4  0
 16 26  1  0
 18 21  4  0
 18 34  4  0
 19 32  1  0
 21 31  4  0
 22 29  4  0
 23 30  4  0
 25 32  4  0
 27 29  4  0
 28 33  4  0
 30 33  4  0
M  END
$$$$

 Created by Python create_sdf_string function

 34 79  0  0  0  0  0  0  0  0999 V2000
   12.5914   -5.2135   20.8939 C   0  0  0  0  0  0  0  0  0  0  0  0
    7.9010   -7.0284   16.8291 C   0  0  0  0  0  0  0  0  0  0  0  0
    3.2732   -9.3094   16.5533 C   0  0  0  0  0  0  0  0  0  0  0  0
   11.4466   -3.4507   23.0185 C   0  0  0  0  0  0  0  0  0  0  0  0
   10.4011   -3.6143   17.4519 C   0  0  0  0  0  0  0  0  0  0  0  0
   12.6527   -4.9942   22.6706 O   0  0  0  0  0  0  0  0  0  0  0  0
    6.1370   -9.7903   15.2341 C   0  0  0  0  0  0  0  0  0  0  0  0
   10.6319   -6.1386   19.0925 C   0  0  0  0  0  0  0  0  0  0  0  0
    1.7444  -10.8011   19.2713 C   0  0  0  0  0  0  0  0  0  0  0  0
   12.7133   -4.8336   23.0110 C   0  0  0  0  0  0  0  0  0  0  0  0
   10.0636   -5.1831   17.7579 C   0  0  0  0  0  0  0  0  0  0  0  0
    9.4779   -6.4290   17.9197 Se  0  0  0  0  0  0  0  0  0  0  0  0
    4.0435   -9.6365   16.3709 S   0  0  0  0  0  0  0  0  0  0  0  0
   12.7954   -3.1366   25.5036 N   0  0  0  0  0  0  0  0  0  0  0  0
    9.1350   -7.3814   17.8191 O   0  0  0  0  0  0  0  0  0  0  0  0
    6.3251   -7.0966   16.3607 Br  0  0  0  0  0  0  0  0  0  0  0  0
   10.9133   -4.7722   20.6617 C   0  0  0  0  0  0  0  0  0  0  0  0
    1.8206  -11.7284   20.0758 C   0  0  0  0  0  0  0  0  0  0  0  0
    6.3007   -8.0514   15.5591 N   0  0  0  0  0  0  0  0  0  0  0  0
    0.5832  -10.8392   18.6891 C   0  0  0  0  0  0  0  0  0  0  0  0
    2.4005   -9.6674   17.3372 N   0  0  0  0  0  0  0  0  0  0  0  0
   10.6024   -3.0629   16.4966 C   0  0  0  0  0  0  0  0  0  0  0  0
   11.1880   -3.4585   18.7235 S   0  0  0  0  0  0  0  0  0  0  0  0
   12.9110   -4.1394   24.5196 C   0  0  0  0  0  0  0  0  0  0  0  0
    0.6708  -12.1391   20.7585 C   0  0  0  0  0  0  0  0  0  0  0  0
    4.8328  -10.4368   17.7175 C   0  0  0  0  0  0  0  0  0  0  0  0
    2.8307  -10.5477   18.3804 C   0  0  0  0  0  0  0  0  0  0  0  0
    7.5706   -9.0062   15.9128 C   0  0  0  0  0  0  0  0  0  0  0  0
   10.8804   -4.7917   19.5129 C   0  0  0  0  0  0  0  0  0  0  0  0
    4.0976  -10.6508   18.3877 N   0  0  0  0  0  0  0  0  0  0  0  0
    7.1629   -6.3794   16.1303 C   0  0  0  0  0  0  0  0  0  0  0  0
   10.9553   -3.5144   21.4695 He  0  0  0  0  0  0  0  0  0  0  0  0
    0.9426  -12.3844   20.7948 He  0  0  0  0  0  0  0  0  0  0  0  0
   -0.4188  -11.5801   19.7571 He  0  0  0  0  0  0  0  0  0  0  0  0
  1  6  3  0
  1 13  3  0
  1 17  4  0
  1 21  1  0
  1 23  3  0
  1 31  1  0
  2 24  3  0
  2 31  4  0
  3  8  3  0
  3 12  4  0
  3 19  3  0
  3 21  4  0
  4  6  1  0
  4 10  4  0
  4 27  1  0
  5 11  4  0
  5 17  3  0
  5 22  1  0
  5 23  4  0
  5 29  2  0
  6  7  3  0
  6 10  1  0
  6 19  3  0
  6 27  4  0
  7 13  1  0
  7 17  3  0
  7 19  1  0
  7 20  2  0
  7 25  1  0
  8 12  4  0
  8 14  3  0
  8 20  3  0
  8 26  4  0
  8 29  4  0
  9 18  4  0
  9 19  2  0
  9 20  4  0
  9 24  1  0
  9 27  1  0
  9 30  1  0
 10 19  3  0
 10 23  3  0
 10 24  1  0
 10 27  3  0
 11 12  4  0
 11 14  1  0
 11 15  4  0
 12 15  1  0
 12 16  2  0
 12 29  3  0
 12 30  1  0
 13 25  1  0
 13 26  3  0
 13 28  3  0
 14 25  1  0
 15 18  1  0
 15 23  1  0
 15 26  4  0
 16 18  3  0
 16 19  1  0
 16 20  1  0
 16 23  4  0
 16 31  4  0
 17 20  1  0
 17 25  1  0
 17 29  1  0
 18 20  2  0
 19 20  3  0
 19 28  4  0
 19 31  4  0
 20 31  1  0
 21 27  4  0
 21 30  4  0
 23 24  4  0
 23 25  2  0
 25 30  2  0
 26 30  4  0
 27 30  4  0
 30 31  4  0
M  END
$$$$

 Created by Python create_sdf_string function

 34 38  0  0  0  0  0  0  0  0999 V2000
   12.5347   -5.3298   21.2462 C   0  0  0  0  0  0  0  0  0  0  0  0
    8.0679   -7.4457   16.7434 C   0  0  0  0  0  0  0  0  0  0  0  0
   10.8864   -3.6399   21.6614 C   0  0  0  0  0  0  0  0  0  0  0  0
    3.3135   -9.2707   16.3161 C   0  0  0  0  0  0  0  0  0  0  0  0
    1.2543  -12.3106   21.0247 C   0  0  0  0  0  0  0  0  0  0  0  0
   11.3414   -3.4670   22.8942 C   0  0  0  0  0  0  0  0  0  0  0  0
   10.4125   -3.9224   17.3176 C   0  0  0  0  0  0  0  0  0  0  0  0
   13.0690   -5.2383   22.4750 C   0  0  0  0  0  0  0  0  0  0  0  0
    5.5347   -9.4469   15.2827 C   0  0  0  0  0  0  0  0  0  0  0  0
   10.3208   -5.9733   19.1705 C   0  0  0  0  0  0  0  0  0  0  0  0
    1.7958  -11.0748   19.0467 C   0  0  0  0  0  0  0  0  0  0  0  0
   12.4426   -4.2874   23.3168 C   0  0  0  0  0  0  0  0  0  0  0  0
    9.7450   -5.1037   17.0596 C   0  0  0  0  0  0  0  0  0  0  0  0
    9.6602   -6.1338   17.8948 C   0  0  0  0  0  0  0  0  0  0  0  0
    4.6478   -9.6655   16.3823 C   0  0  0  0  0  0  0  0  0  0  0  0
   12.7266   -3.3357   25.4653 N   0  0  0  0  0  0  0  0  0  0  0  0
    9.1560   -7.2958   17.6537 O   0  0  0  0  0  0  0  0  0  0  0  0
    6.1171   -7.0927   15.8754 N   0  0  0  0  0  0  0  0  0  0  0  0
   11.4238   -4.6221   20.8142 C   0  0  0  0  0  0  0  0  0  0  0  0
    2.1972  -11.8403   20.1056 C   0  0  0  0  0  0  0  0  0  0  0  0
    6.5188   -8.3875   15.7569 N   0  0  0  0  0  0  0  0  0  0  0  0
    0.4555  -10.8614   18.8668 C   0  0  0  0  0  0  0  0  0  0  0  0
    2.4628   -9.6542   17.1452 N   0  0  0  0  0  0  0  0  0  0  0  0
   10.6678   -3.0379   16.3472 C   0  0  0  0  0  0  0  0  0  0  0  0
   10.8913   -3.7199   18.6281 N   0  0  0  0  0  0  0  0  0  0  0  0
   12.8811   -4.1264   24.5980 C   0  0  0  0  0  0  0  0  0  0  0  0
   -0.0146  -12.1355   20.7796 C   0  0  0  0  0  0  0  0  0  0  0  0
    4.9783  -10.3868   17.5367 C   0  0  0  0  0  0  0  0  0  0  0  0
   -0.4562  -11.4293   19.7337 C   0  0  0  0  0  0  0  0  0  0  0  0
    2.7677  -10.4743   18.2182 C   0  0  0  0  0  0  0  0  0  0  0  0
    7.7939   -8.5688   16.1694 C   0  0  0  0  0  0  0  0  0  0  0  0
   10.9134   -4.7579   19.5787 C   0  0  0  0  0  0  0  0  0  0  0  0
    4.0989  -10.7404   18.4096 N   0  0  0  0  0  0  0  0  0  0  0  0
    7.0741   -6.4977   16.5075 C   0  0  0  0  0  0  0  0  0  0  0  0
  1  8  4  0
  1 19  4  0
  2 17  1  0
  2 31  4  0
  2 34  4  0
  3  6  4  0
  3 19  4  0
  4 15  4  0
  4 23  4  0
  5 20  4  0
  5 27  4  0
  6 12  4  0
  7 13  4  0
  7 24  1  0
  7 25  4  0
  8 12  4  0
  9 15  1  0
  9 21  1  0
 10 14  4  0
 10 32  4  0
 11 20  4  0
 11 22  4  0
 11 30  1  0
 12 26  1  0
 13 14  4  0
 14 17  1  0
 15 28  4  0
 16 26  3  0
 18 21  4  0
 18 34  4  0
 19 32  1  0
 21 31  4  0
 22 29  4  0
 23 30  4  0
 25 32  4  0
 27 29  4  0
 28 33  4  0
 30 33  4  0
M  END
$$$$

 Created by Python create_sdf_string function

 34 80  0  0  0  0  0  0  0  0999 V2000
   12.2582   -5.4362   21.2751 C   0  0  0  0  0  0  0  0  0  0  0  0
    8.6312   -7.6654   16.5938 C   0  0  0  0  0  0  0  0  0  0  0  0
   10.8359   -3.9881   21.5562 C   0  0  0  0  0  0  0  0  0  0  0  0
    3.3502   -9.3845   16.4541 C   0  0  0  0  0  0  0  0  0  0  0  0
    1.0528  -11.7573   21.0600 C   0  0  0  0  0  0  0  0  0  0  0  0
   11.2231   -3.5731   22.9172 C   0  0  0  0  0  0  0  0  0  0  0  0
   13.8156   -5.1281   22.4359 O   0  0  0  0  0  0  0  0  0  0  0  0
    5.5497   -9.5895   15.6469 C   0  0  0  0  0  0  0  0  0  0  0  0
   10.2151   -5.5652   19.2264 C   0  0  0  0  0  0  0  0  0  0  0  0
    1.9120  -11.1117   18.6719 C   0  0  0  0  0  0  0  0  0  0  0  0
   12.6874   -4.6909   23.4546 C   0  0  0  0  0  0  0  0  0  0  0  0
    9.1294   -6.2246   17.7386 C   0  0  0  0  0  0  0  0  0  0  0  0
    4.2430  -10.0625   16.0127 C   0  0  0  0  0  0  0  0  0  0  0  0
   12.8876   -3.1782   25.2284 N   0  0  0  0  0  0  0  0  0  0  0  0
    8.4941   -7.1494   17.7059 O   0  0  0  0  0  0  0  0  0  0  0  0
    5.8254   -7.0131   16.2718 N   0  0  0  0  0  0  0  0  0  0  0  0
   11.4547   -4.3993   20.4080 C   0  0  0  0  0  0  0  0  0  0  0  0
    1.9436  -11.8965   20.1662 C   0  0  0  0  0  0  0  0  0  0  0  0
    6.4743   -8.4955   16.0366 O   0  0  0  0  0  0  0  0  0  0  0  0
    0.4437  -10.9063   19.0146 C   0  0  0  0  0  0  0  0  0  0  0  0
    2.5907  -10.0836   17.3584 N   0  0  0  0  0  0  0  0  0  0  0  0
   10.8437   -2.9147   16.5227 C   0  0  0  0  0  0  0  0  0  0  0  0
   10.6587   -3.8335   17.9644 N   0  0  0  0  0  0  0  0  0  0  0  0
   13.0635   -4.0793   24.4517 C   0  0  0  0  0  0  0  0  0  0  0  0
   -0.1014  -12.3266   20.8467 C   0  0  0  0  0  0  0  0  0  0  0  0
    5.0428  -10.3383   17.6833 C   0  0  0  0  0  0  0  0  0  0  0  0
   -0.3601  -11.3851   19.4998 C   0  0  0  0  0  0  0  0  0  0  0  0
    2.6223  -10.4146   18.1268 C   0  0  0  0  0  0  0  0  0  0  0  0
    7.3576   -8.5015   16.3606 C   0  0  0  0  0  0  0  0  0  0  0  0
    4.2352  -10.8898   18.5927 N   0  0  0  0  0  0  0  0  0  0  0  0
    7.3936   -6.6191   16.4055 C   0  0  0  0  0  0  0  0  0  0  0  0
   10.5567   -3.9177   17.6336 He  0  0  0  0  0  0  0  0  0  0  0  0
    9.7172   -4.6278   17.2371 He  0  0  0  0  0  0  0  0  0  0  0  0
   11.2405   -4.8428   19.5674 He  0  0  0  0  0  0  0  0  0  0  0  0
  1  7  4  0
  1 12  2  0
  1 16  1  0
  1 17  4  0
  1 19  4  0
  1 30  3  0
  2 15  1  0
  2 29  4  0
  2 31  4  0
  3  4  3  0
  3  6  4  0
  3 10  2  0
  3 15  3  0
  3 17  4  0
  3 26  1  0
  3 30  1  0
  4  8  3  0
  4 13  4  0
  4 17  2  0
  4 21  4  0
  4 25  2  0
  4 27  3  0
  5 11  4  0
  5 13  1  0
  5 18  4  0
  5 22  2  0
  5 25  4  0
  6 10  1  0
  6 11  4  0
  6 27  4  0
  7 11  2  0
  8 16  2  0
  8 29  3  0
  8 30  4  0
  8 31  4  0
  9 12  4  0
  9 14  3  0
  9 21  1  0
 10 18  4  0
 10 20  4  0
 10 21  2  0
 10 24  4  0
 10 28  1  0
 10 29  3  0
 11 23  3  0
 11 24  1  0
 11 25  4  0
 11 27  1  0
 11 31  2  0
 12 15  1  0
 13 16  3  0
 13 25  4  0
 13 26  4  0
 14 16  2  0
 14 23  3  0
 14 24  3  0
 14 27  4  0
 14 29  2  0
 15 20  3  0
 15 26  3  0
 16 19  4  0
 16 31  4  0
 17 19  3  0
 17 25  4  0
 17 31  3  0
 18 19  1  0
 18 31  4  0
 19 24  2  0
 19 25  2  0
 19 26  4  0
 19 29  4  0
 20 27  4  0
 21 24  2  0
 22 27  2  0
 24 29  4  0
 25 27  4  0
 26 29  2  0
 26 30  2  0
 27 29  4  0
 28 30  4  0
M  END
$$$$

 Created by Python create_sdf_string function

 34 38  0  0  0  0  0  0  0  0999 V2000
   12.6810   -5.1989   21.0674 C   0  0  0  0  0  0  0  0  0  0  0  0
    7.9774   -7.3830   16.8102 C   0  0  0  0  0  0  0  0  0  0  0  0
   10.7855   -3.8438   21.6808 C   0  0  0  0  0  0  0  0  0  0  0  0
    3.2948   -9.4203   16.3159 C   0  0  0  0  0  0  0  0  0  0  0  0
    1.1358  -12.1819   21.1354 C   0  0  0  0  0  0  0  0  0  0  0  0
   11.2494   -3.6735   22.9115 C   0  0  0  0  0  0  0  0  0  0  0  0
   10.4676   -3.9491   17.3214 C   0  0  0  0  0  0  0  0  0  0  0  0
   13.2270   -5.1197   22.3321 C   0  0  0  0  0  0  0  0  0  0  0  0
    5.5870   -9.4625   15.4409 C   0  0  0  0  0  0  0  0  0  0  0  0
   10.1185   -5.9452   19.1704 C   0  0  0  0  0  0  0  0  0  0  0  0
    1.7327  -11.1026   19.0916 C   0  0  0  0  0  0  0  0  0  0  0  0
   12.4746   -4.2811   23.1922 C   0  0  0  0  0  0  0  0  0  0  0  0
    9.6719   -5.0058   17.0481 C   0  0  0  0  0  0  0  0  0  0  0  0
    9.5802   -5.9914   17.9111 C   0  0  0  0  0  0  0  0  0  0  0  0
    4.6313   -9.7370   16.4744 C   0  0  0  0  0  0  0  0  0  0  0  0
   12.9217   -3.3957   25.3202 N   0  0  0  0  0  0  0  0  0  0  0  0
    9.1536   -7.2001   17.6287 O   0  0  0  0  0  0  0  0  0  0  0  0
    6.0751   -7.1762   15.8670 N   0  0  0  0  0  0  0  0  0  0  0  0
   11.4681   -4.6154   20.7017 C   0  0  0  0  0  0  0  0  0  0  0  0
    2.0869  -11.7406   20.2441 C   0  0  0  0  0  0  0  0  0  0  0  0
    6.4504   -8.4379   15.8926 N   0  0  0  0  0  0  0  0  0  0  0  0
    0.3975  -10.9989   18.7723 C   0  0  0  0  0  0  0  0  0  0  0  0
    2.3711   -9.7998   17.1139 N   0  0  0  0  0  0  0  0  0  0  0  0
   10.7977   -3.0443   16.3738 C   0  0  0  0  0  0  0  0  0  0  0  0
   10.9980   -3.8035   18.5763 N   0  0  0  0  0  0  0  0  0  0  0  0
   12.9607   -3.9711   24.4484 C   0  0  0  0  0  0  0  0  0  0  0  0
   -0.1742  -11.9850   20.8563 C   0  0  0  0  0  0  0  0  0  0  0  0
    4.9057  -10.4530   17.6272 C   0  0  0  0  0  0  0  0  0  0  0  0
   -0.5459  -11.4213   19.6878 C   0  0  0  0  0  0  0  0  0  0  0  0
    2.7177  -10.5864   18.2417 C   0  0  0  0  0  0  0  0  0  0  0  0
    7.6562   -8.6248   16.5177 C   0  0  0  0  0  0  0  0  0  0  0  0
   10.8859   -4.7566   19.5043 C   0  0  0  0  0  0  0  0  0  0  0  0
    4.0313  -10.8858   18.4764 N   0  0  0  0  0  0  0  0  0  0  0  0
    7.0403   -6.5138   16.3446 C   0  0  0  0  0  0  0  0  0  0  0  0
  1  8  4  0
  1 19  4  0
  2 17  1  0
  2 31  4  0
  2 34  4  0
  3  6  4  0
  3 19  4  0
  4 15  4  0
  4 23  4  0
  5 20  4  0
  5 27  4  0
  6 12  4  0
  7 13  4  0
  7 24  1  0
  7 25  4  0
  8 12  4  0
  9 15  1  0
  9 21  1  0
 10 14  4  0
 10 32  4  0
 11 20  4  0
 11 22  4  0
 11 30  1  0
 12 26  1  0
 13 14  4  0
 14 17  1  0
 15 28  4  0
 16 26  3  0
 18 21  4  0
 18 34  4  0
 19 32  1  0
 21 31  4  0
 22 29  4  0
 23 30  4  0
 25 32  4  0
 27 29  4  0
 28 33  4  0
 30 33  4  0
M  END
$$$$

 Created by Python create_sdf_string function

 34 81  0  0  0  0  0  0  0  0999 V2000
   12.4138   -5.2345   20.7283 C   0  0  0  0  0  0  0  0  0  0  0  0
    8.0603   -7.1562   16.9844 S   0  0  0  0  0  0  0  0  0  0  0  0
   10.7203   -3.6052   21.6951 C   0  0  0  0  0  0  0  0  0  0  0  0
    3.1345   -9.3873   16.4262 C   0  0  0  0  0  0  0  0  0  0  0  0
    1.5401  -12.6631   21.2329 C   0  0  0  0  0  0  0  0  0  0  0  0
   10.9572   -3.9927   22.9709 C   0  0  0  0  0  0  0  0  0  0  0  0
    9.9887   -3.5805   17.0414 S   0  0  0  0  0  0  0  0  0  0  0  0
   13.3924   -4.8598   21.5901 C   0  0  0  0  0  0  0  0  0  0  0  0
    5.7924   -8.9520   15.5599 C   0  0  0  0  0  0  0  0  0  0  0  0
    9.9555   -5.3703   19.3399 C   0  0  0  0  0  0  0  0  0  0  0  0
    1.6677  -11.1757   19.3300 C   0  0  0  0  0  0  0  0  0  0  0  0
    9.5293   -5.0826   17.3618 C   0  0  0  0  0  0  0  0  0  0  0  0
    4.9681   -9.6062   16.0142 C   0  0  0  0  0  0  0  0  0  0  0  0
   13.2358   -3.7657   25.4632 N   0  0  0  0  0  0  0  0  0  0  0  0
    8.6853   -7.6304   17.3972 O   0  0  0  0  0  0  0  0  0  0  0  0
    6.9291   -7.2021   15.8073 N   0  0  0  0  0  0  0  0  0  0  0  0
   11.5675   -5.1398   20.3338 C   0  0  0  0  0  0  0  0  0  0  0  0
    2.1646  -11.5168   20.0500 C   0  0  0  0  0  0  0  0  0  0  0  0
    6.2590   -8.0154   15.9183 F   0  0  0  0  0  0  0  0  0  0  0  0
    0.6599  -10.8167   18.8816 C   0  0  0  0  0  0  0  0  0  0  0  0
    2.5333   -9.6629   16.8292 N   0  0  0  0  0  0  0  0  0  0  0  0
   10.6456   -3.2021   16.2737 C   0  0  0  0  0  0  0  0  0  0  0  0
   11.2189   -3.9563   18.7838 N   0  0  0  0  0  0  0  0  0  0  0  0
   12.8784   -3.9116   24.5061 C   0  0  0  0  0  0  0  0  0  0  0  0
   -0.2139  -11.8129   20.4828 N   0  0  0  0  0  0  0  0  0  0  0  0
    4.9230  -10.4168   17.7374 C   0  0  0  0  0  0  0  0  0  0  0  0
   -0.5902  -11.5693   19.5641 C   0  0  0  0  0  0  0  0  0  0  0  0
    2.7802  -10.6251   18.3763 C   0  0  0  0  0  0  0  0  0  0  0  0
    7.4406   -8.7206   16.6075 C   0  0  0  0  0  0  0  0  0  0  0  0
   11.0321   -4.7015   19.4114 Se  0  0  0  0  0  0  0  0  0  0  0  0
    4.1357  -10.8152   18.6644 N   0  0  0  0  0  0  0  0  0  0  0  0
    7.3982   -6.4163   16.5522 C   0  0  0  0  0  0  0  0  0  0  0  0
   12.2778   -4.8642   23.5332 He  0  0  0  0  0  0  0  0  0  0  0  0
    9.4540   -5.9888   17.6819 He  0  0  0  0  0  0  0  0  0  0  0  0
  1  8  4  0
  1 10  1  0
  1 13  1  0
  1 32  4  0
  2  4  1  0
  2  5  4  0
  2 29  3  0
  2 32  4  0
  3  6  4  0
  3 17  4  0
  3 28  3  0
  3 31  2  0
  3 32  3  0
  4  5  4  0
  4 13  4  0
  4 21  4  0
  4 24  1  0
  5 11  2  0
  5 12  2  0
  5 14  2  0
  5 18  4  0
  5 21  2  0
  5 25  4  0
  5 29  1  0
  5 31  2  0
  6 29  2  0
  6 32  4  0
  7 14  2  0
  7 16  4  0
  7 19  3  0
  7 23  4  0
  7 24  3  0
  7 32  2  0
  8 12  4  0
  8 15  2  0
  9 13  1  0
  9 19  1  0
  9 28  2  0
  9 29  1  0
 10 11  1  0
 10 14  1  0
 10 20  2  0
 10 21  4  0
 10 22  3  0
 10 24  4  0
 10 30  4  0
 11 12  2  0
 11 20  4  0
 11 29  4  0
 12 13  1  0
 12 15  1  0
 13 18  1  0
 13 21  3  0
 13 26  4  0
 13 30  2  0
 14 15  4  0
 14 18  1  0
 14 24  3  0
 14 25  4  0
 14 28  3  0
 15 25  1  0
 15 28  4  0
 16 28  1  0
 16 32  4  0
 17 30  1  0
 18 29  4  0
 19 29  4  0
 20 27  4  0
 21 28  4  0
 22 25  2  0
 22 32  1  0
 23 26  2  0
 23 30  4  0
 25 27  4  0
 25 32  1  0
 27 31  1  0
 27 32  2  0
 28 31  4  0
 29 31  2  0
 29 32  1  0
 31 32  4  0
M  END
$$$$

 Created by Python create_sdf_string function

 34 38  0  0  0  0  0  0  0  0999 V2000
   12.6788   -5.0962   20.9710 C   0  0  0  0  0  0  0  0  0  0  0  0
    8.0171   -7.3785   16.9275 C   0  0  0  0  0  0  0  0  0  0  0  0
   10.6396   -4.0269   21.7152 C   0  0  0  0  0  0  0  0  0  0  0  0
    3.3266   -9.3282   16.2977 C   0  0  0  0  0  0  0  0  0  0  0  0
    1.2161  -12.2619   21.0499 C   0  0  0  0  0  0  0  0  0  0  0  0
   11.1120   -3.8894   22.9428 C   0  0  0  0  0  0  0  0  0  0  0  0
   10.4094   -3.9390   17.2628 C   0  0  0  0  0  0  0  0  0  0  0  0
   13.1932   -5.0563   22.2355 C   0  0  0  0  0  0  0  0  0  0  0  0
    5.5027   -9.2173   15.3740 C   0  0  0  0  0  0  0  0  0  0  0  0
   10.1571   -5.9258   19.1886 C   0  0  0  0  0  0  0  0  0  0  0  0
    1.8105  -11.0780   19.0294 C   0  0  0  0  0  0  0  0  0  0  0  0
   12.3895   -4.3614   23.1701 C   0  0  0  0  0  0  0  0  0  0  0  0
    9.5815   -5.0602   17.0836 C   0  0  0  0  0  0  0  0  0  0  0  0
    9.5206   -6.0235   17.9866 C   0  0  0  0  0  0  0  0  0  0  0  0
    4.6873   -9.5614   16.4070 C   0  0  0  0  0  0  0  0  0  0  0  0
   13.1353   -3.9000   25.3799 N   0  0  0  0  0  0  0  0  0  0  0  0
    9.0005   -7.2115   17.9026 O   0  0  0  0  0  0  0  0  0  0  0  0
    6.3840   -6.9405   15.5474 N   0  0  0  0  0  0  0  0  0  0  0  0
   11.3899   -4.5945   20.6872 C   0  0  0  0  0  0  0  0  0  0  0  0
    2.1757  -11.8052   20.1643 C   0  0  0  0  0  0  0  0  0  0  0  0
    6.4445   -8.2456   15.8356 N   0  0  0  0  0  0  0  0  0  0  0  0
    0.4448  -10.8943   18.7721 C   0  0  0  0  0  0  0  0  0  0  0  0
    2.4660   -9.7636   17.0936 N   0  0  0  0  0  0  0  0  0  0  0  0
   10.6988   -3.0979   16.2179 C   0  0  0  0  0  0  0  0  0  0  0  0
   10.9145   -3.7637   18.5240 N   0  0  0  0  0  0  0  0  0  0  0  0
   12.8610   -4.1656   24.4484 C   0  0  0  0  0  0  0  0  0  0  0  0
   -0.0858  -12.0943   20.7453 N   0  0  0  0  0  0  0  0  0  0  0  0
    4.9842  -10.3291   17.5724 C   0  0  0  0  0  0  0  0  0  0  0  0
   -0.4966  -11.4227   19.6597 C   0  0  0  0  0  0  0  0  0  0  0  0
    2.7845  -10.5448   18.2095 C   0  0  0  0  0  0  0  0  0  0  0  0
    7.4887   -8.5228   16.7082 C   0  0  0  0  0  0  0  0  0  0  0  0
   10.8656   -4.7020   19.4698 C   0  0  0  0  0  0  0  0  0  0  0  0
    4.1323  -10.7737   18.4418 N   0  0  0  0  0  0  0  0  0  0  0  0
    7.3499   -6.3986   16.1884 C   0  0  0  0  0  0  0  0  0  0  0  0
  1  8  4  0
  1 19  4  0
  2 17  1  0
  2 31  4  0
  2 34  4  0
  3  6  4  0
  3 19  4  0
  4 15  4  0
  4 23  4  0
  5 20  4  0
  5 27  4  0
  6 12  4  0
  7 13  4  0
  7 24  1  0
  7 25  4  0
  8 12  4  0
  9 15  1  0
  9 21  1  0
 10 14  4  0
 10 32  4  0
 11 20  4  0
 11 22  4  0
 11 30  1  0
 12 26  1  0
 13 14  4  0
 14 17  1  0
 15 28  4  0
 16 26  3  0
 18 21  4  0
 18 34  4  0
 19 32  1  0
 21 31  4  0
 22 29  4  0
 23 30  4  0
 25 32  4  0
 27 29  4  0
 28 33  4  0
 30 33  4  0
M  END
$$$$

 Created by Python create_sdf_string function

 34 68  0  0  0  0  0  0  0  0999 V2000
   12.8513   -4.9688   21.0330 C   0  0  0  0  0  0  0  0  0  0  0  0
    8.2739   -7.3539   16.7512 C   0  0  0  0  0  0  0  0  0  0  0  0
   11.0115   -3.4502   21.4339 B   0  0  0  0  0  0  0  0  0  0  0  0
    3.5689   -9.2152   16.1019 O   0  0  0  0  0  0  0  0  0  0  0  0
    1.2976  -12.6982   21.3905 C   0  0  0  0  0  0  0  0  0  0  0  0
   10.7909   -3.9513   22.9938 C   0  0  0  0  0  0  0  0  0  0  0  0
   10.3244   -4.3591   17.6644 C   0  0  0  0  0  0  0  0  0  0  0  0
   12.8777   -5.7205   21.8473 C   0  0  0  0  0  0  0  0  0  0  0  0
    5.5932   -9.0443   14.8279 C   0  0  0  0  0  0  0  0  0  0  0  0
    2.0867  -11.2304   18.8284 C   0  0  0  0  0  0  0  0  0  0  0  0
   12.3553   -4.1871   23.1481 C   0  0  0  0  0  0  0  0  0  0  0  0
    9.9544   -5.2662   16.7178 O   0  0  0  0  0  0  0  0  0  0  0  0
    9.3382   -6.3162   17.9911 C   0  0  0  0  0  0  0  0  0  0  0  0
    4.9729   -9.4969   16.6335 Cl  0  0  0  0  0  0  0  0  0  0  0  0
   12.7631   -3.5998   25.6381 N   0  0  0  0  0  0  0  0  0  0  0  0
    8.8642   -7.4412   17.7191 O   0  0  0  0  0  0  0  0  0  0  0  0
   11.3493   -4.5324   20.8661 C   0  0  0  0  0  0  0  0  0  0  0  0
    2.1736  -11.8450   20.5279 F   0  0  0  0  0  0  0  0  0  0  0  0
    6.3960   -7.9325   15.8587 N   0  0  0  0  0  0  0  0  0  0  0  0
    0.5311  -10.7094   18.6805 C   0  0  0  0  0  0  0  0  0  0  0  0
    2.6230   -9.3525   16.6020 N   0  0  0  0  0  0  0  0  0  0  0  0
   11.1591   -4.1482   18.0412 N   0  0  0  0  0  0  0  0  0  0  0  0
   12.8925   -4.0278   24.1686 C   0  0  0  0  0  0  0  0  0  0  0  0
   -0.2283  -11.9975   20.7722 N   0  0  0  0  0  0  0  0  0  0  0  0
    4.8652  -10.5421   17.3557 C   0  0  0  0  0  0  0  0  0  0  0  0
    2.6144  -10.7379   18.2701 C   0  0  0  0  0  0  0  0  0  0  0  0
   10.9459   -4.7663   19.4783 C   0  0  0  0  0  0  0  0  0  0  0  0
    4.2276  -11.0553   18.2913 N   0  0  0  0  0  0  0  0  0  0  0  0
    6.8780   -6.2469   16.3694 C   0  0  0  0  0  0  0  0  0  0  0  0
    9.8430   -5.7108   18.7422 He  0  0  0  0  0  0  0  0  0  0  0  0
    6.1411   -6.5458   15.1665 He  0  0  0  0  0  0  0  0  0  0  0  0
   10.5894   -3.1451   15.9947 He  0  0  0  0  0  0  0  0  0  0  0  0
   -0.5075  -11.4850   20.2898 He  0  0  0  0  0  0  0  0  0  0  0  0
    7.4452   -8.2682   16.8742 He  0  0  0  0  0  0  0  0  0  0  0  0
  1  2  2  0
  1  8  4  0
  1 13  1  0
  1 16  2  0
  1 17  4  0
  2 16  1  0
  2 29  4  0
  3  6  4  0
  3  7  1  0
  3 14  2  0
  3 27  3  0
  4 11  4  0
  4 14  4  0
  4 21  4  0
  4 29  2  0
  5  7  2  0
  5 10  3  0
  5 14  3  0
  5 16  4  0
  5 17  4  0
  5 18  2  0
  5 22  2  0
  6 11  4  0
  6 16  3  0
  6 25  1  0
  6 28  4  0
  7 11  2  0
  7 12  4  0
  7 15  4  0
  7 26  1  0
  7 27  2  0
  8 11  4  0
  8 13  4  0
  8 21  2  0
  9 18  1  0
  9 19  1  0
  9 25  4  0
 10 13  1  0
 10 16  2  0
 10 17  3  0
 10 18  4  0
 10 20  3  0
 10 28  3  0
 11 23  1  0
 11 28  3  0
 12 13  4  0
 12 15  3  0
 12 20  1  0
 12 22  2  0
 12 29  4  0
 13 16  1  0
 13 17  4  0
 13 19  2  0
 13 22  3  0
 14 15  2  0
 14 21  1  0
 14 25  4  0
 15 20  1  0
 17 27  3  0
 18 27  3  0
 20 22  2  0
 20 28  1  0
 21 25  3  0
 21 26  4  0
 21 27  4  0
 23 28  4  0
 25 28  4  0
 26 28  4  0
M  END
$$$$

 Created by Python create_sdf_string function

 34 38  0  0  0  0  0  0  0  0999 V2000
   12.5951   -5.1573   21.0035 C   0  0  0  0  0  0  0  0  0  0  0  0
    7.8666   -7.2982   16.8172 C   0  0  0  0  0  0  0  0  0  0  0  0
   10.6890   -3.8143   21.5795 C   0  0  0  0  0  0  0  0  0  0  0  0
    3.3064   -9.2488   16.3667 C   0  0  0  0  0  0  0  0  0  0  0  0
    1.3381  -12.3220   21.1012 C   0  0  0  0  0  0  0  0  0  0  0  0
   11.1306   -3.6390   22.7973 C   0  0  0  0  0  0  0  0  0  0  0  0
   10.5092   -4.1601   17.0432 C   0  0  0  0  0  0  0  0  0  0  0  0
   13.1031   -5.0513   22.2895 C   0  0  0  0  0  0  0  0  0  0  0  0
    5.3806   -9.2398   15.2308 C   0  0  0  0  0  0  0  0  0  0  0  0
   10.1448   -5.9403   19.1787 C   0  0  0  0  0  0  0  0  0  0  0  0
    1.8327  -11.1217   19.0757 C   0  0  0  0  0  0  0  0  0  0  0  0
   12.3176   -4.2934   23.1336 C   0  0  0  0  0  0  0  0  0  0  0  0
    9.7366   -5.2708   16.9063 N   0  0  0  0  0  0  0  0  0  0  0  0
    9.5763   -6.1035   17.9436 C   0  0  0  0  0  0  0  0  0  0  0  0
    4.6170   -9.5829   16.3780 C   0  0  0  0  0  0  0  0  0  0  0  0
   12.6058   -3.7105   25.4281 N   0  0  0  0  0  0  0  0  0  0  0  0
    8.9365   -7.2317   17.8220 O   0  0  0  0  0  0  0  0  0  0  0  0
    6.2653   -6.8707   15.3568 N   0  0  0  0  0  0  0  0  0  0  0  0
   11.3895   -4.5765   20.6357 C   0  0  0  0  0  0  0  0  0  0  0  0
    2.2313  -11.9283   20.1409 C   0  0  0  0  0  0  0  0  0  0  0  0
    6.3207   -8.1737   15.7294 N   0  0  0  0  0  0  0  0  0  0  0  0
    0.4668  -10.8534   18.9360 C   0  0  0  0  0  0  0  0  0  0  0  0
    2.4929   -9.7422   17.1744 N   0  0  0  0  0  0  0  0  0  0  0  0
   10.7905   -3.2888   15.9637 N   0  0  0  0  0  0  0  0  0  0  0  0
   11.0160   -3.8578   18.3040 N   0  0  0  0  0  0  0  0  0  0  0  0
   12.7069   -4.1617   24.4334 C   0  0  0  0  0  0  0  0  0  0  0  0
    0.0451  -12.0465   20.9504 N   0  0  0  0  0  0  0  0  0  0  0  0
    5.0072  -10.4250   17.4766 C   0  0  0  0  0  0  0  0  0  0  0  0
   -0.4350  -11.3528   19.9062 C   0  0  0  0  0  0  0  0  0  0  0  0
    2.8183  -10.5828   18.2174 C   0  0  0  0  0  0  0  0  0  0  0  0
    7.3794   -8.3906   16.5719 C   0  0  0  0  0  0  0  0  0  0  0  0
   10.8728   -4.7585   19.3833 C   0  0  0  0  0  0  0  0  0  0  0  0
    4.1597  -10.8733   18.3500 N   0  0  0  0  0  0  0  0  0  0  0  0
    7.2391   -6.3026   16.0811 C   0  0  0  0  0  0  0  0  0  0  0  0
  1  8  4  0
  1 19  4  0
  2 17  1  0
  2 31  4  0
  2 34  4  0
  3  6  4  0
  3 19  4  0
  4 15  4  0
  4 23  4  0
  5 20  4  0
  5 27  4  0
  6 12  4  0
  7 13  4  0
  7 24  1  0
  7 25  4  0
  8 12  4  0
  9 15  1  0
  9 21  1  0
 10 14  4  0
 10 32  4  0
 11 20  4  0
 11 22  4  0
 11 30  1  0
 12 26  1  0
 13 14  4  0
 14 17  1  0
 15 28  4  0
 16 26  3  0
 18 21  4  0
 18 34  4  0
 19 32  1  0
 21 31  4  0
 22 29  4  0
 23 30  4  0
 25 32  4  0
 27 29  4  0
 28 33  4  0
 30 33  4  0
M  END
$$$$

 Created by Python create_sdf_string function

 34 72  0  0  0  0  0  0  0  0999 V2000
   12.6428   -4.9176   20.9443 C   0  0  0  0  0  0  0  0  0  0  0  0
    8.0768   -7.6320   16.7976 C   0  0  0  0  0  0  0  0  0  0  0  0
   10.6963   -4.0856   21.8088 C   0  0  0  0  0  0  0  0  0  0  0  0
    3.3246   -9.1105   16.3964 C   0  0  0  0  0  0  0  0  0  0  0  0
    0.9346  -12.6913   21.1022 I   0  0  0  0  0  0  0  0  0  0  0  0
   11.2651   -3.5714   22.6981 C   0  0  0  0  0  0  0  0  0  0  0  0
   10.0224   -3.8933   16.6847 C   0  0  0  0  0  0  0  0  0  0  0  0
   13.2468   -5.2631   22.1749 C   0  0  0  0  0  0  0  0  0  0  0  0
    5.0982   -8.9022   14.8483 C   0  0  0  0  0  0  0  0  0  0  0  0
    9.8518   -5.9088   19.1622 C   0  0  0  0  0  0  0  0  0  0  0  0
    1.6332  -11.1711   18.8088 C   0  0  0  0  0  0  0  0  0  0  0  0
   11.5216   -3.7085   23.0755 C   0  0  0  0  0  0  0  0  0  0  0  0
    9.8732   -5.0873   16.8885 N   0  0  0  0  0  0  0  0  0  0  0  0
    9.4259   -6.6462   18.0312 C   0  0  0  0  0  0  0  0  0  0  0  0
    4.9205   -9.7596   16.5502 C   0  0  0  0  0  0  0  0  0  0  0  0
    8.7816   -7.5838   17.9118 O   0  0  0  0  0  0  0  0  0  0  0  0
    2.0720  -12.2074   20.1044 C   0  0  0  0  0  0  0  0  0  0  0  0
    6.3968   -8.2292   15.5029 N   0  0  0  0  0  0  0  0  0  0  0  0
    0.5848  -10.8313   19.0268 C   0  0  0  0  0  0  0  0  0  0  0  0
    2.5814  -10.0373   17.4169 N   0  0  0  0  0  0  0  0  0  0  0  0
   10.9048   -3.1541   15.6954 N   0  0  0  0  0  0  0  0  0  0  0  0
   10.7655   -4.1667   18.4493 N   0  0  0  0  0  0  0  0  0  0  0  0
   12.8664   -4.1078   24.4817 C   0  0  0  0  0  0  0  0  0  0  0  0
   -0.0550  -12.1646   21.0849 N   0  0  0  0  0  0  0  0  0  0  0  0
    5.0401  -10.4107   17.4635 C   0  0  0  0  0  0  0  0  0  0  0  0
   -0.3988  -10.8815   19.8704 S   0  0  0  0  0  0  0  0  0  0  0  0
    2.7369  -10.3736   18.1152 C   0  0  0  0  0  0  0  0  0  0  0  0
    7.4734   -8.7736   16.5296 C   0  0  0  0  0  0  0  0  0  0  0  0
    4.1544  -10.8910   18.3536 N   0  0  0  0  0  0  0  0  0  0  0  0
    6.5809   -6.2569   15.9371 C   0  0  0  0  0  0  0  0  0  0  0  0
   12.4238   -3.8776   25.3778 He  0  0  0  0  0  0  0  0  0  0  0  0
    6.1344   -6.7761   15.2957 He  0  0  0  0  0  0  0  0  0  0  0  0
   11.1953   -4.9538   20.5733 He  0  0  0  0  0  0  0  0  0  0  0  0
   10.7638   -4.5954   19.4558 He  0  0  0  0  0  0  0  0  0  0  0  0
  1  8  4  0
  1 13  2  0
  1 26  2  0
  1 29  3  0
  2  6  4  0
  2  7  4  0
  2 22  2  0
  2 24  3  0
  2 28  4  0
  2 30  4  0
  3 10  2  0
  3 11  3  0
  3 15  3  0
  4 15  4  0
  4 20  3  0
  5 17  4  0
  5 23  1  0
  5 24  4  0
  5 28  2  0
  6 22  4  0
  6 26  1  0
  7 13  4  0
  7 21  1  0
  7 22  4  0
  8 10  1  0
  8 12  3  0
  8 22  4  0
  8 23  3  0
  8 24  1  0
  9 13  4  0
  9 15  1  0
  9 17  2  0
  9 18  1  0
  9 21  2  0
 10 12  4  0
 10 14  4  0
 10 15  2  0
 10 28  3  0
 11 13  2  0
 11 16  2  0
 11 17  4  0
 11 19  4  0
 11 25  1  0
 11 27  1  0
 12 15  3  0
 12 16  2  0
 13 14  4  0
 14 24  2  0
 14 26  3  0
 14 30  4  0
 15 22  3  0
 15 25  4  0
 16 17  1  0
 16 18  1  0
 16 22  2  0
 16 24  4  0
 17 21  2  0
 17 25  1  0
 17 28  3  0
 18 25  1  0
 18 27  4  0
 18 28  4  0
 20 27  4  0
 22 24  2  0
 22 28  4  0
 24 26  4  0
 25 26  3  0
 25 27  2  0
 25 29  4  0
 27 28  3  0
 27 29  4  0
 28 30  3  0
M  END
$$$$

 Created by Python create_sdf_string function

 34 38  0  0  0  0  0  0  0  0999 V2000
   12.5485   -5.1071   20.9525 C   0  0  0  0  0  0  0  0  0  0  0  0
    7.8409   -7.4431   16.7592 C   0  0  0  0  0  0  0  0  0  0  0  0
   10.5899   -3.8277   21.5421 C   0  0  0  0  0  0  0  0  0  0  0  0
    3.2181   -9.2940   16.4028 C   0  0  0  0  0  0  0  0  0  0  0  0
    1.2096  -12.5238   20.9419 C   0  0  0  0  0  0  0  0  0  0  0  0
   10.9648   -3.7275   22.8089 C   0  0  0  0  0  0  0  0  0  0  0  0
   10.4444   -4.1600   17.1174 C   0  0  0  0  0  0  0  0  0  0  0  0
   13.0739   -4.9554   22.2157 C   0  0  0  0  0  0  0  0  0  0  0  0
    5.3240   -9.3122   15.1831 C   0  0  0  0  0  0  0  0  0  0  0  0
   10.0468   -6.0097   19.1387 C   0  0  0  0  0  0  0  0  0  0  0  0
    1.8225  -11.1338   19.0849 C   0  0  0  0  0  0  0  0  0  0  0  0
   12.2217   -4.2390   23.1265 C   0  0  0  0  0  0  0  0  0  0  0  0
    9.6697   -5.2936   16.8783 N   0  0  0  0  0  0  0  0  0  0  0  0
    9.4899   -6.1913   17.8554 C   0  0  0  0  0  0  0  0  0  0  0  0
    4.5479   -9.6363   16.3466 C   0  0  0  0  0  0  0  0  0  0  0  0
   12.5112   -3.7934   25.3389 N   0  0  0  0  0  0  0  0  0  0  0  0
    8.8762   -7.3764   17.6991 O   0  0  0  0  0  0  0  0  0  0  0  0
    6.2251   -6.9935   15.3481 N   0  0  0  0  0  0  0  0  0  0  0  0
   11.3030   -4.5768   20.6191 C   0  0  0  0  0  0  0  0  0  0  0  0
    2.1516  -12.0894   20.0257 C   0  0  0  0  0  0  0  0  0  0  0  0
    6.2940   -8.2844   15.5851 N   0  0  0  0  0  0  0  0  0  0  0  0
    0.4672  -10.7032   19.0500 C   0  0  0  0  0  0  0  0  0  0  0  0
    2.3903   -9.7501   17.2367 N   0  0  0  0  0  0  0  0  0  0  0  0
   10.7833   -3.2494   16.0728 N   0  0  0  0  0  0  0  0  0  0  0  0
   10.8963   -3.9018   18.4000 N   0  0  0  0  0  0  0  0  0  0  0  0
   12.6092   -4.0362   24.4194 C   0  0  0  0  0  0  0  0  0  0  0  0
   -0.0360  -12.0443   20.9401 N   0  0  0  0  0  0  0  0  0  0  0  0
    4.9418  -10.4465   17.4664 C   0  0  0  0  0  0  0  0  0  0  0  0
   -0.4393  -11.1453   20.0029 C   0  0  0  0  0  0  0  0  0  0  0  0
    2.7707  -10.6187   18.2480 C   0  0  0  0  0  0  0  0  0  0  0  0
    7.3625   -8.5645   16.3703 C   0  0  0  0  0  0  0  0  0  0  0  0
   10.7671   -4.8053   19.3760 C   0  0  0  0  0  0  0  0  0  0  0  0
    4.1256  -10.9261   18.3479 N   0  0  0  0  0  0  0  0  0  0  0  0
    7.1215   -6.3929   16.1052 C   0  0  0  0  0  0  0  0  0  0  0  0
  1  8  4  0
  1 19  4  0
  2 17  1  0
  2 31  4  0
  2 34  4  0
  3  6  4  0
  3 19  4  0
  4 15  4  0
  4 23  4  0
  5 20  4  0
  5 27  4  0
  6 12  4  0
  7 13  4  0
  7 24  1  0
  7 25  4  0
  8 12  4  0
  9 15  1  0
  9 21  1  0
 10 14  4  0
 10 32  4  0
 11 20  4  0
 11 22  4  0
 11 30  1  0
 12 26  1  0
 13 14  4  0
 14 17  1  0
 15 28  4  0
 16 26  3  0
 18 21  4  0
 18 34  4  0
 19 32  1  0
 21 31  4  0
 22 29  4  0
 23 30  4  0
 25 32  4  0
 27 29  4  0
 28 33  4  0
 30 33  4  0
M  END
$$$$

 Created by Python create_sdf_string function

 34 74  0  0  0  0  0  0  0  0999 V2000
    8.1568   -7.2987   16.6240 C   0  0  0  0  0  0  0  0  0  0  0  0
   10.4348   -3.6615   21.2304 C   0  0  0  0  0  0  0  0  0  0  0  0
    3.1373   -9.3083   16.1676 C   0  0  0  0  0  0  0  0  0  0  0  0
    1.2672  -12.7471   20.9348 C   0  0  0  0  0  0  0  0  0  0  0  0
   11.0789   -3.8588   22.8842 C   0  0  0  0  0  0  0  0  0  0  0  0
   11.0458   -3.9874   16.7747 F   0  0  0  0  0  0  0  0  0  0  0  0
   13.1339   -5.1296   22.5511 N   0  0  0  0  0  0  0  0  0  0  0  0
   10.1527   -6.2365   19.0401 C   0  0  0  0  0  0  0  0  0  0  0  0
    1.7819  -11.2959   18.9896 C   0  0  0  0  0  0  0  0  0  0  0  0
   12.1399   -4.2083   23.2219 C   0  0  0  0  0  0  0  0  0  0  0  0
    9.8330   -6.1942   16.7711 N   0  0  0  0  0  0  0  0  0  0  0  0
    9.5102   -5.8971   18.0625 F   0  0  0  0  0  0  0  0  0  0  0  0
    4.7053   -9.6024   16.0170 C   0  0  0  0  0  0  0  0  0  0  0  0
   13.1313   -3.9690   25.1768 F   0  0  0  0  0  0  0  0  0  0  0  0
    8.7410   -7.2251   17.8522 O   0  0  0  0  0  0  0  0  0  0  0  0
    6.1493   -6.8325   15.6772 N   0  0  0  0  0  0  0  0  0  0  0  0
   11.3227   -4.6173   21.1418 C   0  0  0  0  0  0  0  0  0  0  0  0
    1.9559  -12.3216   19.7030 C   0  0  0  0  0  0  0  0  0  0  0  0
    6.4570   -8.3496   15.5797 N   0  0  0  0  0  0  0  0  0  0  0  0
    0.3908  -10.7808   19.0695 C   0  0  0  0  0  0  0  0  0  0  0  0
    2.2599   -9.7982   17.0427 N   0  0  0  0  0  0  0  0  0  0  0  0
   10.6835   -3.2838   16.0775 N   0  0  0  0  0  0  0  0  0  0  0  0
   11.2479   -4.0903   18.4311 N   0  0  0  0  0  0  0  0  0  0  0  0
   12.4381   -3.9414   24.4806 C   0  0  0  0  0  0  0  0  0  0  0  0
   -0.1540  -12.0887   21.0855 N   0  0  0  0  0  0  0  0  0  0  0  0
    5.0736  -10.2672   17.4275 C   0  0  0  0  0  0  0  0  0  0  0  0
   -0.7602  -10.7697   19.9223 C   0  0  0  0  0  0  0  0  0  0  0  0
    2.7978  -10.5823   18.3767 C   0  0  0  0  0  0  0  0  0  0  0  0
    7.2763   -8.5676   15.9031 C   0  0  0  0  0  0  0  0  0  0  0  0
   10.6965   -5.0057   19.4730 C   0  0  0  0  0  0  0  0  0  0  0  0
    4.1627  -10.8322   18.1990 N   0  0  0  0  0  0  0  0  0  0  0  0
    6.8525   -6.2481   15.9349 C   0  0  0  0  0  0  0  0  0  0  0  0
   12.7137   -5.0878   20.8199 He  0  0  0  0  0  0  0  0  0  0  0  0
    5.5564   -8.9427   15.0505 He  0  0  0  0  0  0  0  0  0  0  0  0
  1  7  1  0
  1 15  1  0
  1 22  1  0
  1 29  4  0
  1 32  4  0
  2  5  4  0
  2  8  3  0
  2 17  4  0
  2 19  4  0
  2 24  4  0
  3 13  4  0
  3 15  2  0
  3 21  4  0
  4  6  3  0
  4 18  4  0
  4 25  4  0
  4 32  3  0
  5 20  1  0
  5 24  1  0
  5 31  1  0
  6 12  2  0
  6 15  4  0
  6 16  1  0
  6 20  2  0
  6 22  2  0
  6 23  4  0
  7 10  4  0
  7 20  2  0
  7 21  3  0
  7 31  1  0
  8 12  4  0
  8 14  1  0
  8 24  2  0
  8 28  1  0
  8 30  4  0
  9 18  4  0
  9 20  4  0
  9 23  3  0
  9 28  1  0
 10 22  1  0
 10 24  1  0
 10 28  4  0
 11 12  4  0
 11 16  4  0
 11 20  1  0
 11 21  1  0
 11 30  1  0
 12 13  1  0
 12 15  1  0
 12 22  3  0
 12 25  4  0
 12 30  2  0
 13 14  2  0
 13 25  4  0
 14 19  1  0
 14 24  3  0
 16 18  1  0
 16 19  4  0
 16 32  4  0
 17 21  1  0
 17 30  1  0
 19 26  2  0
 20 27  4  0
 22 26  4  0
 22 27  4  0
 22 32  1  0
 23 28  2  0
 23 30  4  0
 24 27  1  0
 25 27  4  0
 26 31  4  0
 27 32  1  0
 28 31  4  0
 28 32  3  0
M  END
$$$$

 Created by Python create_sdf_string function

 34 38  0  0  0  0  0  0  0  0999 V2000
   12.5871   -5.1659   21.0821 C   0  0  0  0  0  0  0  0  0  0  0  0
    7.8657   -7.3145   16.6625 C   0  0  0  0  0  0  0  0  0  0  0  0
   10.5905   -3.8899   21.4875 C   0  0  0  0  0  0  0  0  0  0  0  0
    3.1815   -9.3415   16.1871 C   0  0  0  0  0  0  0  0  0  0  0  0
    1.1806  -12.6060   20.8102 C   0  0  0  0  0  0  0  0  0  0  0  0
   10.9676   -3.6613   22.7792 C   0  0  0  0  0  0  0  0  0  0  0  0
   10.7000   -4.3110   17.0988 C   0  0  0  0  0  0  0  0  0  0  0  0
   13.0249   -4.9834   22.3646 C   0  0  0  0  0  0  0  0  0  0  0  0
    5.3601   -9.2208   15.1441 C   0  0  0  0  0  0  0  0  0  0  0  0
   10.0827   -6.0327   19.1318 C   0  0  0  0  0  0  0  0  0  0  0  0
    1.7770  -11.1276   18.9902 C   0  0  0  0  0  0  0  0  0  0  0  0
   12.1440   -4.2163   23.1691 C   0  0  0  0  0  0  0  0  0  0  0  0
    9.9618   -5.4190   16.8573 N   0  0  0  0  0  0  0  0  0  0  0  0
    9.6537   -6.2270   17.8377 C   0  0  0  0  0  0  0  0  0  0  0  0
    4.5198   -9.6070   16.2387 C   0  0  0  0  0  0  0  0  0  0  0  0
   13.1015   -4.0103   25.2155 N   0  0  0  0  0  0  0  0  0  0  0  0
    8.8604   -7.2914   17.6473 C   0  0  0  0  0  0  0  0  0  0  0  0
    6.1251   -6.9033   15.4410 N   0  0  0  0  0  0  0  0  0  0  0  0
   11.3638   -4.6667   20.6449 C   0  0  0  0  0  0  0  0  0  0  0  0
    2.1099  -12.1311   19.8900 C   0  0  0  0  0  0  0  0  0  0  0  0
    6.2928   -8.1909   15.5535 N   0  0  0  0  0  0  0  0  0  0  0  0
    0.4493  -10.6525   19.0397 C   0  0  0  0  0  0  0  0  0  0  0  0
    2.3183   -9.7910   17.0288 N   0  0  0  0  0  0  0  0  0  0  0  0
   10.9818   -3.4373   16.1324 N   0  0  0  0  0  0  0  0  0  0  0  0
   11.1898   -4.1018   18.3508 N   0  0  0  0  0  0  0  0  0  0  0  0
   12.5800   -4.0702   24.4868 C   0  0  0  0  0  0  0  0  0  0  0  0
   -0.0431  -12.0489   20.8900 N   0  0  0  0  0  0  0  0  0  0  0  0
    4.9237  -10.3380   17.3911 C   0  0  0  0  0  0  0  0  0  0  0  0
   -0.4591  -11.0668   20.0243 C   0  0  0  0  0  0  0  0  0  0  0  0
    2.7058  -10.5941   18.1207 C   0  0  0  0  0  0  0  0  0  0  0  0
    7.4278   -8.4412   16.1942 C   0  0  0  0  0  0  0  0  0  0  0  0
   10.9204   -4.9031   19.3822 C   0  0  0  0  0  0  0  0  0  0  0  0
    4.0709  -10.8177   18.2656 N   0  0  0  0  0  0  0  0  0  0  0  0
    7.0732   -6.3234   16.1207 C   0  0  0  0  0  0  0  0  0  0  0  0
  1  8  4  0
  1 19  4  0
  2 17  1  0
  2 31  4  0
  2 34  4  0
  3  6  4  0
  3 19  4  0
  4 15  4  0
  4 23  4  0
  5 20  4  0
  5 27  4  0
  6 12  4  0
  7 13  4  0
  7 24  2  0
  7 25  4  0
  8 12  4  0
  9 15  1  0
  9 21  1  0
 10 14  4  0
 10 32  4  0
 11 20  4  0
 11 22  4  0
 11 30  1  0
 12 26  1  0
 13 14  4  0
 14 17  1  0
 15 28  4  0
 16 26  3  0
 18 21  4  0
 18 34  4  0
 19 32  1  0
 21 31  4  0
 22 29  4  0
 23 30  4  0
 25 32  4  0
 27 29  4  0
 28 33  4  0
 30 33  4  0
M  END
$$$$

 Created by Python create_sdf_string function

 34 63  0  0  0  0  0  0  0  0999 V2000
   12.5153   -5.4569   20.7314 C   0  0  0  0  0  0  0  0  0  0  0  0
    7.7624   -7.1292   16.3820 C   0  0  0  0  0  0  0  0  0  0  0  0
   10.4009   -4.0668   21.7353 C   0  0  0  0  0  0  0  0  0  0  0  0
    3.2651   -9.2162   16.0292 C   0  0  0  0  0  0  0  0  0  0  0  0
   10.9327   -3.5116   23.0273 C   0  0  0  0  0  0  0  0  0  0  0  0
   10.3770   -4.7714   17.2663 C   0  0  0  0  0  0  0  0  0  0  0  0
   12.7901   -4.9450   22.4685 C   0  0  0  0  0  0  0  0  0  0  0  0
    5.2669   -9.1701   15.0512 C   0  0  0  0  0  0  0  0  0  0  0  0
   10.1494   -5.9624   19.1019 C   0  0  0  0  0  0  0  0  0  0  0  0
    1.7953  -11.3601   19.1764 C   0  0  0  0  0  0  0  0  0  0  0  0
    9.9742   -5.2378   17.0077 N   0  0  0  0  0  0  0  0  0  0  0  0
    9.5896   -6.6325   17.6978 C   0  0  0  0  0  0  0  0  0  0  0  0
    4.5022  -10.0262   16.1748 C   0  0  0  0  0  0  0  0  0  0  0  0
   13.4187   -4.0641   24.9336 N   0  0  0  0  0  0  0  0  0  0  0  0
    8.2921   -7.1103   17.4212 C   0  0  0  0  0  0  0  0  0  0  0  0
   11.3604   -4.3902   20.5667 C   0  0  0  0  0  0  0  0  0  0  0  0
    2.4621  -12.5404   19.6362 C   0  0  0  0  0  0  0  0  0  0  0  0
    6.5520   -8.2985   15.9444 N   0  0  0  0  0  0  0  0  0  0  0  0
    0.4270  -10.8503   19.2511 C   0  0  0  0  0  0  0  0  0  0  0  0
    2.2057   -9.7037   16.3805 N   0  0  0  0  0  0  0  0  0  0  0  0
   10.9139   -3.4473   16.2553 N   0  0  0  0  0  0  0  0  0  0  0  0
   11.4893   -4.0065   18.4843 N   0  0  0  0  0  0  0  0  0  0  0  0
   12.6210   -3.9004   24.3572 C   0  0  0  0  0  0  0  0  0  0  0  0
   -0.1322  -12.2896   20.7539 F   0  0  0  0  0  0  0  0  0  0  0  0
    4.8586  -10.5235   17.6433 C   0  0  0  0  0  0  0  0  0  0  0  0
   -0.3182  -10.7589   20.2881 C   0  0  0  0  0  0  0  0  0  0  0  0
    2.6938  -10.7091   18.1911 C   0  0  0  0  0  0  0  0  0  0  0  0
    7.8178   -8.1989   16.0065 C   0  0  0  0  0  0  0  0  0  0  0  0
   10.9025   -4.7586   19.4215 C   0  0  0  0  0  0  0  0  0  0  0  0
    4.1243  -10.8314   18.4170 N   0  0  0  0  0  0  0  0  0  0  0  0
    0.6346  -12.6209   21.0311 He  0  0  0  0  0  0  0  0  0  0  0  0
   11.9356   -3.9796   23.0740 He  0  0  0  0  0  0  0  0  0  0  0  0
    5.7961   -6.9059   15.4061 He  0  0  0  0  0  0  0  0  0  0  0  0
    7.1447   -6.2729   16.0179 He  0  0  0  0  0  0  0  0  0  0  0  0
  1  6  2  0
  1  7  4  0
  2  4  1  0
  2  6  2  0
  2 15  1  0
  3  5  4  0
  3 16  4  0
  3 18  4  0
  3 27  3  0
  4 13  4  0
  4 20  1  0
  5 13  1  0
  5 15  4  0
  6 11  4  0
  6 21  2  0
  7 15  1  0
  7 21  3  0
  7 30  3  0
  8 11  3  0
  8 13  1  0
  8 29  1  0
  9 12  4  0
  9 24  2  0
  9 29  4  0
 10 17  4  0
 10 19  4  0
 10 27  1  0
 11 12  4  0
 11 15  4  0
 11 28  2  0
 12 15  1  0
 12 28  1  0
 12 29  3  0
 13 14  1  0
 13 15  1  0
 13 18  2  0
 13 25  4  0
 14 21  1  0
 14 23  1  0
 14 25  1  0
 14 27  1  0
 14 30  3  0
 15 20  2  0
 15 28  1  0
 16 19  2  0
 16 22  2  0
 16 29  1  0
 17 18  1  0
 17 21  3  0
 18 19  4  0
 18 22  1  0
 19 26  4  0
 20 23  4  0
 20 26  2  0
 20 27  4  0
 21 28  3  0
 22 23  3  0
 22 29  4  0
 24 26  4  0
 25 28  1  0
 25 30  3  0
 26 28  1  0
 27 30  4  0
M  END
$$$$

 Created by Python create_sdf_string function

 34 38  0  0  0  0  0  0  0  0999 V2000
   12.5556   -5.1473   21.1222 C   0  0  0  0  0  0  0  0  0  0  0  0
    7.8226   -7.2468   16.5234 C   0  0  0  0  0  0  0  0  0  0  0  0
   10.5140   -3.8866   21.5538 C   0  0  0  0  0  0  0  0  0  0  0  0
    3.1397   -9.3954   16.1739 C   0  0  0  0  0  0  0  0  0  0  0  0
    1.1252  -12.7176   20.7726 C   0  0  0  0  0  0  0  0  0  0  0  0
   10.8930   -3.6317   22.8255 C   0  0  0  0  0  0  0  0  0  0  0  0
   10.6624   -4.3082   17.1424 C   0  0  0  0  0  0  0  0  0  0  0  0
   13.0098   -4.8967   22.3917 C   0  0  0  0  0  0  0  0  0  0  0  0
    5.4489   -9.3934   15.2203 C   0  0  0  0  0  0  0  0  0  0  0  0
   10.0822   -6.0129   19.1689 C   0  0  0  0  0  0  0  0  0  0  0  0
    1.7721  -11.1587   19.0276 C   0  0  0  0  0  0  0  0  0  0  0  0
   12.1144   -4.1282   23.2074 C   0  0  0  0  0  0  0  0  0  0  0  0
    9.8648   -5.3015   16.8705 N   0  0  0  0  0  0  0  0  0  0  0  0
    9.5457   -6.1492   17.8639 C   0  0  0  0  0  0  0  0  0  0  0  0
    4.5183   -9.6917   16.2880 C   0  0  0  0  0  0  0  0  0  0  0  0
   13.5379   -4.1082   25.0603 N   0  0  0  0  0  0  0  0  0  0  0  0
    8.6675   -7.2454   17.6238 C   0  0  0  0  0  0  0  0  0  0  0  0
    6.0116   -6.9903   15.4354 N   0  0  0  0  0  0  0  0  0  0  0  0
   11.3174   -4.6548   20.7035 C   0  0  0  0  0  0  0  0  0  0  0  0
    2.0543  -12.2379   19.8605 C   0  0  0  0  0  0  0  0  0  0  0  0
    6.2994   -8.2953   15.5300 N   0  0  0  0  0  0  0  0  0  0  0  0
    0.4863  -10.6073   19.1395 C   0  0  0  0  0  0  0  0  0  0  0  0
    2.3056   -9.8561   17.0409 N   0  0  0  0  0  0  0  0  0  0  0  0
   11.0060   -3.4994   16.1668 N   0  0  0  0  0  0  0  0  0  0  0  0
   11.1381   -4.0956   18.4172 N   0  0  0  0  0  0  0  0  0  0  0  0
   12.5610   -3.8286   24.4993 C   0  0  0  0  0  0  0  0  0  0  0  0
   -0.0249  -12.1055   20.9103 C   0  0  0  0  0  0  0  0  0  0  0  0
    4.9132  -10.3910   17.4660 C   0  0  0  0  0  0  0  0  0  0  0  0
   -0.4067  -11.0531   20.1235 C   0  0  0  0  0  0  0  0  0  0  0  0
    2.6887  -10.6423   18.1363 C   0  0  0  0  0  0  0  0  0  0  0  0
    7.4965   -8.4196   16.0163 C   0  0  0  0  0  0  0  0  0  0  0  0
   10.8681   -4.9089   19.4317 C   0  0  0  0  0  0  0  0  0  0  0  0
    4.0479  -10.8779   18.2880 N   0  0  0  0  0  0  0  0  0  0  0  0
    7.0009   -6.2703   15.9821 N   0  0  0  0  0  0  0  0  0  0  0  0
  1  8  4  0
  1 19  4  0
  2 17  1  0
  2 31  4  0
  2 34  4  0
  3  6  4  0
  3 19  4  0
  4 15  4  0
  4 23  4  0
  5 20  4  0
  5 27  4  0
  6 12  4  0
  7 13  4  0
  7 24  2  0
  7 25  4  0
  8 12  4  0
  9 15  1  0
  9 21  1  0
 10 14  4  0
 10 32  4  0
 11 20  4  0
 11 22  4  0
 11 30  1  0
 12 26  1  0
 13 14  4  0
 14 17  1  0
 15 28  4  0
 16 26  1  0
 18 21  4  0
 18 34  4  0
 19 32  1  0
 21 31  4  0
 22 29  4  0
 23 30  4  0
 25 32  4  0
 27 29  4  0
 28 33  4  0
 30 33  4  0
M  END
$$$$

 Created by Python create_sdf_string function

 34 78  0  0  0  0  0  0  0  0999 V2000
   12.4939   -5.0493   20.9299 C   0  0  0  0  0  0  0  0  0  0  0  0
    7.8749   -6.9214   16.9064 C   0  0  0  0  0  0  0  0  0  0  0  0
   10.5293   -3.9744   21.8843 C   0  0  0  0  0  0  0  0  0  0  0  0
    3.3449   -9.4673   16.1711 C   0  0  0  0  0  0  0  0  0  0  0  0
    1.0888  -12.4330   20.7099 C   0  0  0  0  0  0  0  0  0  0  0  0
   10.5778   -3.8322   22.7898 C   0  0  0  0  0  0  0  0  0  0  0  0
   10.7607   -4.5922   16.9817 C   0  0  0  0  0  0  0  0  0  0  0  0
   13.0564   -5.0503   22.5829 C   0  0  0  0  0  0  0  0  0  0  0  0
    5.4264   -9.2773   15.0113 C   0  0  0  0  0  0  0  0  0  0  0  0
   10.0469   -5.8914   18.8465 C   0  0  0  0  0  0  0  0  0  0  0  0
    1.6939  -11.1151   18.7309 C   0  0  0  0  0  0  0  0  0  0  0  0
   12.0586   -4.7978   23.1518 N   0  0  0  0  0  0  0  0  0  0  0  0
    9.7908   -5.4250   17.2640 N   0  0  0  0  0  0  0  0  0  0  0  0
    9.3453   -6.1247   17.5401 Br  0  0  0  0  0  0  0  0  0  0  0  0
    4.5639   -9.6798   16.5006 C   0  0  0  0  0  0  0  0  0  0  0  0
   13.8805   -4.0695   25.4712 N   0  0  0  0  0  0  0  0  0  0  0  0
    8.8533   -7.3454   17.0566 C   0  0  0  0  0  0  0  0  0  0  0  0
    5.8776   -6.9673   15.4038 N   0  0  0  0  0  0  0  0  0  0  0  0
   11.1066   -4.6283   20.3889 S   0  0  0  0  0  0  0  0  0  0  0  0
    2.1913  -12.5365   19.7242 C   0  0  0  0  0  0  0  0  0  0  0  0
    6.3373   -8.5213   15.2584 C   0  0  0  0  0  0  0  0  0  0  0  0
    0.4267  -10.6639   19.2166 C   0  0  0  0  0  0  0  0  0  0  0  0
   10.9109   -3.4963   16.3027 N   0  0  0  0  0  0  0  0  0  0  0  0
   11.0713   -3.6457   18.1680 N   0  0  0  0  0  0  0  0  0  0  0  0
   12.5121   -4.0340   24.2512 C   0  0  0  0  0  0  0  0  0  0  0  0
    4.9179  -10.3386   17.6056 C   0  0  0  0  0  0  0  0  0  0  0  0
    0.1007  -11.1788   19.8109 C   0  0  0  0  0  0  0  0  0  0  0  0
    2.7548  -10.6059   18.0790 C   0  0  0  0  0  0  0  0  0  0  0  0
    7.5199   -8.3336   16.0086 C   0  0  0  0  0  0  0  0  0  0  0  0
   10.8340   -4.8940   19.3657 C   0  0  0  0  0  0  0  0  0  0  0  0
    3.9910  -10.8629   18.2982 N   0  0  0  0  0  0  0  0  0  0  0  0
    7.4435   -6.1448   15.8637 S   0  0  0  0  0  0  0  0  0  0  0  0
    2.0013  -10.0139   17.0720 He  0  0  0  0  0  0  0  0  0  0  0  0
    0.0246  -12.0749   20.9253 He  0  0  0  0  0  0  0  0  0  0  0  0
  1  8  4  0
  1 18  3  0
  1 19  4  0
  1 28  4  0
  2  3  1  0
  2  7  2  0
  2 17  1  0
  2 29  4  0
  2 31  2  0
  2 32  4  0
  3  6  4  0
  3 11  2  0
  3 12  3  0
  3 19  4  0
  3 20  4  0
  3 26  4  0
  4 15  1  0
  4 19  3  0
  4 20  1  0
  4 23  3  0
  5  9  2  0
  5 18  2  0
  5 20  4  0
  6 12  4  0
  6 14  4  0
  6 17  3  0
  6 18  3  0
  6 27  2  0
  7 13  4  0
  7 19  4  0
  7 23  2  0
  7 24  4  0
  7 28  1  0
  8 12  4  0
  8 19  3  0
  9 15  1  0
  9 19  1  0
  9 21  1  0
 10 14  4  0
 10 15  1  0
 10 18  1  0
 10 30  4  0
 11 20  4  0
 11 22  4  0
 11 25  3  0
 11 28  1  0
 11 29  2  0
 12 20  1  0
 13 14  4  0
 13 28  2  0
 13 30  4  0
 14 17  1  0
 14 18  4  0
 15 16  3  0
 15 26  4  0
 15 32  2  0
 16 17  1  0
 16 25  1  0
 16 30  4  0
 17 29  1  0
 18 21  4  0
 18 26  2  0
 18 32  4  0
 19 21  1  0
 19 25  3  0
 19 30  1  0
 20 21  2  0
 20 25  1  0
 21 23  4  0
 21 25  2  0
 21 29  4  0
 21 32  4  0
 22 27  4  0
 23 25  4  0
 23 29  1  0
 26 31  4  0
 28 31  4  0
 30 32  1  0
M  END
$$$$

 Created by Python create_sdf_string function

 34 38  0  0  0  0  0  0  0  0999 V2000
   12.5402   -5.1304   21.0367 C   0  0  0  0  0  0  0  0  0  0  0  0
    7.8900   -7.3310   16.4696 C   0  0  0  0  0  0  0  0  0  0  0  0
   10.4664   -4.0002   21.6131 C   0  0  0  0  0  0  0  0  0  0  0  0
    3.1685   -9.4131   16.1600 C   0  0  0  0  0  0  0  0  0  0  0  0
    1.2280  -12.6732   20.7488 C   0  0  0  0  0  0  0  0  0  0  0  0
   10.8567   -3.8851   22.8894 C   0  0  0  0  0  0  0  0  0  0  0  0
   10.6446   -4.1864   17.0667 C   0  0  0  0  0  0  0  0  0  0  0  0
   12.9789   -4.9932   22.3319 C   0  0  0  0  0  0  0  0  0  0  0  0
    5.3779   -9.4065   15.1816 C   0  0  0  0  0  0  0  0  0  0  0  0
   10.0795   -5.9654   19.0439 C   0  0  0  0  0  0  0  0  0  0  0  0
    1.7807  -11.1869   18.9786 C   0  0  0  0  0  0  0  0  0  0  0  0
   12.0892   -4.3359   23.2157 C   0  0  0  0  0  0  0  0  0  0  0  0
    9.9296   -5.2654   16.7726 N   0  0  0  0  0  0  0  0  0  0  0  0
    9.6420   -6.1188   17.7107 C   0  0  0  0  0  0  0  0  0  0  0  0
    4.5252   -9.6866   16.2713 C   0  0  0  0  0  0  0  0  0  0  0  0
   13.6208   -4.2022   25.1841 N   0  0  0  0  0  0  0  0  0  0  0  0
    8.8579   -7.2697   17.4343 C   0  0  0  0  0  0  0  0  0  0  0  0
    6.0600   -7.0065   15.2629 N   0  0  0  0  0  0  0  0  0  0  0  0
   11.2719   -4.6564   20.6466 C   0  0  0  0  0  0  0  0  0  0  0  0
    2.1252  -12.2143   19.8334 C   0  0  0  0  0  0  0  0  0  0  0  0
    6.2950   -8.2785   15.4903 C   0  0  0  0  0  0  0  0  0  0  0  0
    0.4466  -10.6869   19.0596 C   0  0  0  0  0  0  0  0  0  0  0  0
    2.3214   -9.8827   16.9887 N   0  0  0  0  0  0  0  0  0  0  0  0
   11.0297   -3.3582   16.1463 N   0  0  0  0  0  0  0  0  0  0  0  0
   11.0618   -3.9783   18.3452 N   0  0  0  0  0  0  0  0  0  0  0  0
   12.5005   -4.1239   24.5802 C   0  0  0  0  0  0  0  0  0  0  0  0
    0.0538  -12.1033   20.8849 C   0  0  0  0  0  0  0  0  0  0  0  0
    4.8914  -10.3583   17.4655 C   0  0  0  0  0  0  0  0  0  0  0  0
   -0.3774  -11.1174   20.0836 C   0  0  0  0  0  0  0  0  0  0  0  0
    2.6780  -10.6345   18.1165 C   0  0  0  0  0  0  0  0  0  0  0  0
    7.4597   -8.4618   16.1086 C   0  0  0  0  0  0  0  0  0  0  0  0
   10.8246   -4.8512   19.3496 C   0  0  0  0  0  0  0  0  0  0  0  0
    4.0558  -10.8225   18.3181 N   0  0  0  0  0  0  0  0  0  0  0  0
    7.0859   -6.2574   15.9063 N   0  0  0  0  0  0  0  0  0  0  0  0
  1  8  4  0
  1 19  4  0
  2 17  1  0
  2 31  4  0
  2 34  4  0
  3  6  4  0
  3 19  4  0
  4 15  4  0
  4 23  4  0
  5 20  4  0
  5 27  4  0
  6 12  4  0
  7 13  4  0
  7 24  2  0
  7 25  4  0
  8 12  4  0
  9 15  1  0
  9 21  1  0
 10 14  4  0
 10 32  4  0
 11 20  4  0
 11 22  4  0
 11 30  1  0
 12 26  1  0
 13 14  4  0
 14 17  1  0
 15 28  4  0
 16 26  1  0
 18 21  4  0
 18 34  4  0
 19 32  1  0
 21 31  4  0
 22 29  4  0
 23 30  4  0
 25 32  4  0
 27 29  4  0
 28 33  4  0
 30 33  4  0
M  END
$$$$

 Created by Python create_sdf_string function

 34 65  0  0  0  0  0  0  0  0999 V2000
   12.1361   -5.0130   21.0408 C   0  0  0  0  0  0  0  0  0  0  0  0
    7.6772   -7.4105   16.6399 C   0  0  0  0  0  0  0  0  0  0  0  0
    0.9541  -12.7191   20.8172 C   0  0  0  0  0  0  0  0  0  0  0  0
   11.0065   -3.9092   22.9741 C   0  0  0  0  0  0  0  0  0  0  0  0
   10.6184   -4.0081   17.0976 C   0  0  0  0  0  0  0  0  0  0  0  0
   13.1167   -5.1458   21.8922 C   0  0  0  0  0  0  0  0  0  0  0  0
    5.4816   -9.1133   15.0048 C   0  0  0  0  0  0  0  0  0  0  0  0
   10.0795   -5.7701   19.0334 C   0  0  0  0  0  0  0  0  0  0  0  0
    1.7764  -11.0243   18.9784 C   0  0  0  0  0  0  0  0  0  0  0  0
   11.5546   -4.3532   23.2356 C   0  0  0  0  0  0  0  0  0  0  0  0
   10.2565   -5.0163   16.4484 C   0  0  0  0  0  0  0  0  0  0  0  0
    9.3246   -5.8283   17.7422 C   0  0  0  0  0  0  0  0  0  0  0  0
    4.4183   -9.6406   16.6116 C   0  0  0  0  0  0  0  0  0  0  0  0
   13.9488   -4.4645   24.9976 N   0  0  0  0  0  0  0  0  0  0  0  0
    8.8394   -7.4878   17.2021 C   0  0  0  0  0  0  0  0  0  0  0  0
    6.1609   -7.0225   15.5170 O   0  0  0  0  0  0  0  0  0  0  0  0
   11.2146   -4.3596   20.7619 C   0  0  0  0  0  0  0  0  0  0  0  0
    1.6665  -12.5839   19.9271 C   0  0  0  0  0  0  0  0  0  0  0  0
    6.2049   -8.2451   15.9151 C   0  0  0  0  0  0  0  0  0  0  0  0
    0.4653  -10.5943   19.1775 C   0  0  0  0  0  0  0  0  0  0  0  0
    2.0595   -9.8070   16.7857 N   0  0  0  0  0  0  0  0  0  0  0  0
   11.0026   -3.3204   15.9886 N   0  0  0  0  0  0  0  0  0  0  0  0
   11.0481   -3.7896   18.6032 N   0  0  0  0  0  0  0  0  0  0  0  0
   12.4536   -4.0363   24.5224 C   0  0  0  0  0  0  0  0  0  0  0  0
    0.1002  -12.1012   20.8439 C   0  0  0  0  0  0  0  0  0  0  0  0
    4.7247  -10.3985   17.4431 C   0  0  0  0  0  0  0  0  0  0  0  0
   -0.3455  -11.5526   20.0161 C   0  0  0  0  0  0  0  0  0  0  0  0
    2.8094  -10.6014   18.2312 C   0  0  0  0  0  0  0  0  0  0  0  0
    7.4725   -8.3734   16.0140 C   0  0  0  0  0  0  0  0  0  0  0  0
   10.8511   -4.7882   19.3539 C   0  0  0  0  0  0  0  0  0  0  0  0
    3.8500  -10.9902   18.3162 N   0  0  0  0  0  0  0  0  0  0  0  0
    6.8280   -6.2444   15.7209 N   0  0  0  0  0  0  0  0  0  0  0  0
   10.7072   -4.1525   21.9492 He  0  0  0  0  0  0  0  0  0  0  0  0
    3.1261   -9.5264   16.1392 He  0  0  0  0  0  0  0  0  0  0  0  0
  1  6  4  0
  1 10  3  0
  1 23  2  0
  2  9  1  0
  2 15  1  0
  2 29  4  0
  3  9  2  0
  3 18  4  0
  3 25  4  0
  3 30  3  0
  4 10  3  0
  4 29  3  0
  5  7  2  0
  5  9  4  0
  5 11  4  0
  5 17  1  0
  5 19  1  0
  5 22  2  0
  5 23  4  0
  5 24  4  0
  6 16  4  0
  6 27  2  0
  7 13  1  0
  7 19  4  0
  7 26  3  0
  7 28  2  0
  8 22  3  0
  9 13  4  0
  9 18  4  0
  9 19  4  0
  9 20  4  0
  9 28  1  0
 10 11  1  0
 10 24  1  0
 10 25  1  0
 11 12  4  0
 11 15  2  0
 11 23  3  0
 11 32  4  0
 12 15  4  0
 12 20  1  0
 12 25  2  0
 12 26  1  0
 12 31  4  0
 13 23  1  0
 13 26  4  0
 14 24  1  0
 14 25  3  0
 15 21  3  0
 16 17  2  0
 16 19  4  0
 16 32  4  0
 17 30  1  0
 19 29  4  0
 19 31  4  0
 20 28  1  0
 21 28  4  0
 23 27  3  0
 23 30  4  0
 25 27  4  0
 26 27  1  0
 26 28  1  0
 26 31  4  0
 28 30  3  0
 28 31  4  0
M  END
$$$$

 Created by Python create_sdf_string function

 34 38  0  0  0  0  0  0  0  0999 V2000
   12.5001   -5.1156   20.9954 C   0  0  0  0  0  0  0  0  0  0  0  0
    7.8586   -7.2513   16.4975 C   0  0  0  0  0  0  0  0  0  0  0  0
   10.4907   -3.9779   21.6054 C   0  0  0  0  0  0  0  0  0  0  0  0
    3.0314   -9.4417   16.2202 C   0  0  0  0  0  0  0  0  0  0  0  0
    1.1208  -12.7369   20.7811 C   0  0  0  0  0  0  0  0  0  0  0  0
   10.9003   -3.8861   22.9169 C   0  0  0  0  0  0  0  0  0  0  0  0
   10.7246   -3.9738   17.0616 C   0  0  0  0  0  0  0  0  0  0  0  0
   13.0089   -5.0292   22.2702 C   0  0  0  0  0  0  0  0  0  0  0  0
    5.2541   -9.2839   15.2541 C   0  0  0  0  0  0  0  0  0  0  0  0
    9.9919   -5.8337   19.0229 C   0  0  0  0  0  0  0  0  0  0  0  0
    1.6526  -11.2292   19.0182 C   0  0  0  0  0  0  0  0  0  0  0  0
   12.1413   -4.3592   23.2129 C   0  0  0  0  0  0  0  0  0  0  0  0
    9.9406   -5.0712   16.7290 C   0  0  0  0  0  0  0  0  0  0  0  0
    9.5937   -5.9885   17.6681 C   0  0  0  0  0  0  0  0  0  0  0  0
    4.3774   -9.6840   16.2989 C   0  0  0  0  0  0  0  0  0  0  0  0
   13.8204   -4.4809   24.9636 N   0  0  0  0  0  0  0  0  0  0  0  0
    8.8945   -7.1523   17.3990 C   0  0  0  0  0  0  0  0  0  0  0  0
    6.0646   -6.9353   15.3979 O   0  0  0  0  0  0  0  0  0  0  0  0
   11.2591   -4.5815   20.6515 C   0  0  0  0  0  0  0  0  0  0  0  0
    2.0337  -12.2094   19.8885 C   0  0  0  0  0  0  0  0  0  0  0  0
    6.2128   -8.2382   15.5761 C   0  0  0  0  0  0  0  0  0  0  0  0
    0.3203  -10.7462   19.0913 C   0  0  0  0  0  0  0  0  0  0  0  0
    2.1819   -9.8904   17.0696 N   0  0  0  0  0  0  0  0  0  0  0  0
   11.1622   -3.1625   16.1886 N   0  0  0  0  0  0  0  0  0  0  0  0
   11.0649   -3.7976   18.3933 N   0  0  0  0  0  0  0  0  0  0  0  0
   12.6654   -4.2073   24.5578 C   0  0  0  0  0  0  0  0  0  0  0  0
   -0.1085  -12.2279   20.8904 C   0  0  0  0  0  0  0  0  0  0  0  0
    4.7954  -10.4045   17.4590 C   0  0  0  0  0  0  0  0  0  0  0  0
   -0.5255  -11.1979   20.1247 C   0  0  0  0  0  0  0  0  0  0  0  0
    2.5877  -10.6713   18.1429 C   0  0  0  0  0  0  0  0  0  0  0  0
    7.3682   -8.4850   16.1516 C   0  0  0  0  0  0  0  0  0  0  0  0
   10.7838   -4.7000   19.3803 C   0  0  0  0  0  0  0  0  0  0  0  0
    3.9599  -10.8903   18.3246 N   0  0  0  0  0  0  0  0  0  0  0  0
    7.0568   -6.2749   15.9421 N   0  0  0  0  0  0  0  0  0  0  0  0
  1  8  4  0
  1 19  4  0
  2 17  1  0
  2 31  4  0
  2 34  4  0
  3  6  4  0
  3 19  4  0
  4 15  4  0
  4 23  4  0
  5 20  4  0
  5 27  4  0
  6 12  4  0
  7 13  4  0
  7 24  2  0
  7 25  4  0
  8 12  4  0
  9 15  1  0
  9 21  1  0
 10 14  4  0
 10 32  4  0
 11 20  4  0
 11 22  4  0
 11 30  1  0
 12 26  1  0
 13 14  4  0
 14 17  1  0
 15 28  4  0
 16 26  1  0
 18 21  4  0
 18 34  4  0
 19 32  1  0
 21 31  4  0
 22 29  4  0
 23 30  4  0
 25 32  4  0
 27 29  4  0
 28 33  4  0
 30 33  4  0
M  END
$$$$

 Created by Python create_sdf_string function

 34 66  0  0  0  0  0  0  0  0999 V2000
    7.7554   -7.2682   16.3391 C   0  0  0  0  0  0  0  0  0  0  0  0
   10.2946   -3.8023   21.2939 C   0  0  0  0  0  0  0  0  0  0  0  0
    3.0065   -9.3908   16.1035 C   0  0  0  0  0  0  0  0  0  0  0  0
    0.8695  -12.7508   20.5696 F   0  0  0  0  0  0  0  0  0  0  0  0
   10.8658   -3.9273   22.8719 C   0  0  0  0  0  0  0  0  0  0  0  0
   10.5259   -3.5983   16.9320 C   0  0  0  0  0  0  0  0  0  0  0  0
   12.9891   -4.8189   22.3718 C   0  0  0  0  0  0  0  0  0  0  0  0
    4.8156   -9.3144   15.2951 C   0  0  0  0  0  0  0  0  0  0  0  0
   10.1241   -5.8058   18.7726 C   0  0  0  0  0  0  0  0  0  0  0  0
    1.7645  -11.1914   18.9778 C   0  0  0  0  0  0  0  0  0  0  0  0
   11.8885   -4.4561   23.3702 C   0  0  0  0  0  0  0  0  0  0  0  0
    9.7199   -5.1476   16.4364 C   0  0  0  0  0  0  0  0  0  0  0  0
    9.6120   -5.7181   17.5015 C   0  0  0  0  0  0  0  0  0  0  0  0
    4.3187   -9.8038   16.1586 C   0  0  0  0  0  0  0  0  0  0  0  0
   13.9028   -4.5583   25.0044 N   0  0  0  0  0  0  0  0  0  0  0  0
    8.9734   -7.4911   17.8161 C   0  0  0  0  0  0  0  0  0  0  0  0
    6.1297   -6.9550   15.4984 C   0  0  0  0  0  0  0  0  0  0  0  0
   11.0743   -4.4658   20.6456 C   0  0  0  0  0  0  0  0  0  0  0  0
    2.0336  -12.5900   19.7961 C   0  0  0  0  0  0  0  0  0  0  0  0
    6.3086   -8.0657   15.7765 C   0  0  0  0  0  0  0  0  0  0  0  0
    0.5297  -10.7098   19.0934 C   0  0  0  0  0  0  0  0  0  0  0  0
    2.0978   -9.6145   16.8511 N   0  0  0  0  0  0  0  0  0  0  0  0
   11.2985   -3.1985   16.2779 N   0  0  0  0  0  0  0  0  0  0  0  0
   11.2783   -3.8664   18.3349 N   0  0  0  0  0  0  0  0  0  0  0  0
   12.5108   -4.1449   24.7030 C   0  0  0  0  0  0  0  0  0  0  0  0
   -0.2027  -12.1301   20.8067 C   0  0  0  0  0  0  0  0  0  0  0  0
    4.8679  -10.3533   17.4133 C   0  0  0  0  0  0  0  0  0  0  0  0
   -0.3659  -11.0830   20.0622 C   0  0  0  0  0  0  0  0  0  0  0  0
    2.7045  -10.6399   17.8933 C   0  0  0  0  0  0  0  0  0  0  0  0
    7.5340   -8.1579   16.0867 C   0  0  0  0  0  0  0  0  0  0  0  0
   10.7058   -4.4829   19.4099 C   0  0  0  0  0  0  0  0  0  0  0  0
    4.0522  -10.8239   18.2146 N   0  0  0  0  0  0  0  0  0  0  0  0
    7.0084   -5.9756   16.0037 O   0  0  0  0  0  0  0  0  0  0  0  0
   12.7807   -5.0073   21.0916 He  0  0  0  0  0  0  0  0  0  0  0  0
  1 16  1  0
  1 20  3  0
  1 22  3  0
  1 30  4  0
  1 33  1  0
  2  5  4  0
  2 12  4  0
  2 13  3  0
  2 15  1  0
  2 18  4  0
  2 22  4  0
  3  6  2  0
  3  8  4  0
  3 14  4  0
  3 22  4  0
  4 19  4  0
  4 26  4  0
  5 11  4  0
  5 29  2  0
  6 23  2  0
  6 24  2  0
  6 28  3  0
  7 11  4  0
  7 23  1  0
  8 14  1  0
  8 20  1  0
  9 13  4  0
  9 31  4  0
 10 14  4  0
 10 19  4  0
 10 21  4  0
 10 28  3  0
 10 29  1  0
 11 25  1  0
 11 30  4  0
 12 13  4  0
 12 22  4  0
 12 27  2  0
 12 33  4  0
 13 15  3  0
 13 16  1  0
 14 19  2  0
 14 27  4  0
 15 19  3  0
 15 25  1  0
 15 27  3  0
 15 31  1  0
 16 23  2  0
 17 31  4  0
 17 33  4  0
 18 19  1  0
 18 31  1  0
 20 21  3  0
 20 23  2  0
 20 24  2  0
 20 30  4  0
 20 31  1  0
 21 33  1  0
 22 29  4  0
 23 33  3  0
 24 31  4  0
 26 28  4  0
 26 32  3  0
 27 31  1  0
 27 32  4  0
 29 32  4  0
M  END
$$$$

 Created by Python create_sdf_string function

 34 38  0  0  0  0  0  0  0  0999 V2000
   12.5390   -4.9703   21.0041 C   0  0  0  0  0  0  0  0  0  0  0  0
    7.8785   -7.1927   16.5468 C   0  0  0  0  0  0  0  0  0  0  0  0
   10.4392   -3.9353   21.5613 C   0  0  0  0  0  0  0  0  0  0  0  0
    3.0157   -9.3983   16.1525 C   0  0  0  0  0  0  0  0  0  0  0  0
    1.0499  -12.7817   20.5971 C   0  0  0  0  0  0  0  0  0  0  0  0
   10.8271   -3.8277   22.9020 C   0  0  0  0  0  0  0  0  0  0  0  0
   10.7497   -3.9103   17.0143 C   0  0  0  0  0  0  0  0  0  0  0  0
   12.9754   -4.8872   22.3233 C   0  0  0  0  0  0  0  0  0  0  0  0
    5.2484   -9.1734   15.2274 C   0  0  0  0  0  0  0  0  0  0  0  0
   10.0990   -5.7937   18.9504 C   0  0  0  0  0  0  0  0  0  0  0  0
    1.6852  -11.1708   18.9525 C   0  0  0  0  0  0  0  0  0  0  0  0
   12.0591   -4.2967   23.2398 C   0  0  0  0  0  0  0  0  0  0  0  0
    9.8802   -4.9957   16.7213 C   0  0  0  0  0  0  0  0  0  0  0  0
    9.6371   -5.9375   17.6805 C   0  0  0  0  0  0  0  0  0  0  0  0
    4.3523   -9.6055   16.2616 C   0  0  0  0  0  0  0  0  0  0  0  0
   13.7233   -4.5377   24.9857 N   0  0  0  0  0  0  0  0  0  0  0  0
    9.0048   -7.1781   17.4538 C   0  0  0  0  0  0  0  0  0  0  0  0
    6.0441   -6.8424   15.4134 C   0  0  0  0  0  0  0  0  0  0  0  0
   11.2820   -4.5084   20.6187 C   0  0  0  0  0  0  0  0  0  0  0  0
    1.9681  -12.2884   19.7232 C   0  0  0  0  0  0  0  0  0  0  0  0
    6.1938   -8.1501   15.6023 C   0  0  0  0  0  0  0  0  0  0  0  0
    0.4101  -10.5972   19.1029 C   0  0  0  0  0  0  0  0  0  0  0  0
    2.1751   -9.8716   16.9981 N   0  0  0  0  0  0  0  0  0  0  0  0
   11.1571   -3.1131   16.1342 N   0  0  0  0  0  0  0  0  0  0  0  0
   11.1143   -3.7330   18.3503 N   0  0  0  0  0  0  0  0  0  0  0  0
   12.4575   -4.2065   24.6485 C   0  0  0  0  0  0  0  0  0  0  0  0
   -0.1293  -12.2035   20.7957 C   0  0  0  0  0  0  0  0  0  0  0  0
    4.7835  -10.3672   17.3601 C   0  0  0  0  0  0  0  0  0  0  0  0
   -0.4758  -11.0925   20.0687 C   0  0  0  0  0  0  0  0  0  0  0  0
    2.6047  -10.6426   18.0743 C   0  0  0  0  0  0  0  0  0  0  0  0
    7.3454   -8.3686   16.2221 C   0  0  0  0  0  0  0  0  0  0  0  0
   10.8528   -4.6386   19.3214 C   0  0  0  0  0  0  0  0  0  0  0  0
    3.9827  -10.8690   18.2078 N   0  0  0  0  0  0  0  0  0  0  0  0
    7.0448   -6.1719   15.9380 O   0  0  0  0  0  0  0  0  0  0  0  0
  1  8  4  0
  1 19  4  0
  2 17  1  0
  2 31  4  0
  2 34  4  0
  3  6  4  0
  3 19  4  0
  4 15  4  0
  4 23  4  0
  5 20  4  0
  5 27  4  0
  6 12  4  0
  7 13  4  0
  7 24  2  0
  7 25  4  0
  8 12  4  0
  9 15  1  0
  9 21  1  0
 10 14  4  0
 10 32  4  0
 11 20  4  0
 11 22  4  0
 11 30  1  0
 12 26  1  0
 13 14  4  0
 14 17  1  0
 15 28  4  0
 16 26  1  0
 18 21  4  0
 18 34  4  0
 19 32  1  0
 21 31  4  0
 22 29  4  0
 23 30  4  0
 25 32  4  0
 27 29  4  0
 28 33  4  0
 30 33  4  0
M  END
$$$$

 Created by Python create_sdf_string function

 34 62  0  0  0  0  0  0  0  0999 V2000
   12.6170   -4.7812   20.8977 C   0  0  0  0  0  0  0  0  0  0  0  0
    7.9399   -7.2567   16.3373 C   0  0  0  0  0  0  0  0  0  0  0  0
    2.8379   -9.3266   16.0821 C   0  0  0  0  0  0  0  0  0  0  0  0
    1.0778  -12.8971   20.6256 C   0  0  0  0  0  0  0  0  0  0  0  0
   11.0152   -3.8116   22.8565 C   0  0  0  0  0  0  0  0  0  0  0  0
   10.8114   -3.9417   16.8408 C   0  0  0  0  0  0  0  0  0  0  0  0
   12.5326   -5.0183   22.1575 C   0  0  0  0  0  0  0  0  0  0  0  0
    5.3848   -9.4175   14.9825 C   0  0  0  0  0  0  0  0  0  0  0  0
    1.7825  -10.9755   19.0191 C   0  0  0  0  0  0  0  0  0  0  0  0
   12.4587   -4.3067   23.2559 C   0  0  0  0  0  0  0  0  0  0  0  0
   10.0391   -4.8259   16.9876 C   0  0  0  0  0  0  0  0  0  0  0  0
    9.5344   -5.8235   17.6709 O   0  0  0  0  0  0  0  0  0  0  0  0
    4.3577   -9.8961   16.6331 C   0  0  0  0  0  0  0  0  0  0  0  0
   13.8619   -4.2226   24.8711 N   0  0  0  0  0  0  0  0  0  0  0  0
    9.0577   -7.3626   17.3809 C   0  0  0  0  0  0  0  0  0  0  0  0
    6.1445   -6.8335   15.3088 C   0  0  0  0  0  0  0  0  0  0  0  0
   11.1069   -4.7138   20.1501 C   0  0  0  0  0  0  0  0  0  0  0  0
    1.7915  -12.1261   19.8915 C   0  0  0  0  0  0  0  0  0  0  0  0
    6.5191   -8.3872   15.4875 P   0  0  0  0  0  0  0  0  0  0  0  0
    0.3273  -10.5583   18.9902 O   0  0  0  0  0  0  0  0  0  0  0  0
    2.3945   -9.9410   16.9556 N   0  0  0  0  0  0  0  0  0  0  0  0
   11.1236   -3.0948   16.1447 N   0  0  0  0  0  0  0  0  0  0  0  0
   11.1335   -3.8056   18.2717 N   0  0  0  0  0  0  0  0  0  0  0  0
   12.5990   -4.2422   24.5438 C   0  0  0  0  0  0  0  0  0  0  0  0
    0.0415  -12.1735   20.8637 C   0  0  0  0  0  0  0  0  0  0  0  0
    4.8565  -10.5798   17.2647 C   0  0  0  0  0  0  0  0  0  0  0  0
   -0.4845  -11.3125   20.0631 C   0  0  0  0  0  0  0  0  0  0  0  0
    2.5303  -10.7204   18.0571 C   0  0  0  0  0  0  0  0  0  0  0  0
    7.3228   -8.3439   16.5059 C   0  0  0  0  0  0  0  0  0  0  0  0
   10.8292   -4.7478   19.3443 C   0  0  0  0  0  0  0  0  0  0  0  0
    4.3165  -10.8579   18.1886 N   0  0  0  0  0  0  0  0  0  0  0  0
    7.0635   -6.4647   16.2017 O   0  0  0  0  0  0  0  0  0  0  0  0
   10.2626   -4.0264   21.6192 He  0  0  0  0  0  0  0  0  0  0  0  0
   10.3088   -5.9800   18.8994 He  0  0  0  0  0  0  0  0  0  0  0  0
  1 15  2  0
  1 17  4  0
  1 19  3  0
  2  6  2  0
  2 13  1  0
  2 29  4  0
  2 31  2  0
  2 32  4  0
  3 11  4  0
  3 13  4  0
  3 21  4  0
  4 17  2  0
  4 18  4  0
  4 25  3  0
  5 10  4  0
  5 23  2  0
  5 26  2  0
  6 11  1  0
  6 15  1  0
  6 20  1  0
  6 23  4  0
  7 10  4  0
  7 17  3  0
  7 29  3  0
  8 13  1  0
  8 19  1  0
  8 23  3  0
  8 24  1  0
  9 13  1  0
  9 15  1  0
  9 18  4  0
  9 19  2  0
  9 20  3  0
  9 28  3  0
 10 24  1  0
 11 12  4  0
 11 19  2  0
 12 15  1  0
 12 16  1  0
 13 27  4  0
 14 24  1  0
 16 19  4  0
 16 24  2  0
 16 32  4  0
 17 18  2  0
 17 22  4  0
 17 28  3  0
 17 30  1  0
 18 30  3  0
 19 27  1  0
 19 28  1  0
 19 29  4  0
 20 27  4  0
 21 28  4  0
 23 28  4  0
 23 30  4  0
 25 27  4  0
 26 27  1  0
 26 29  1  0
 26 31  4  0
 28 31  4  0
 29 32  4  0
M  END
$$$$

 Created by Python create_sdf_string function

 34 38  0  0  0  0  0  0  0  0999 V2000
   12.5562   -5.0662   20.9508 C   0  0  0  0  0  0  0  0  0  0  0  0
    7.9108   -7.3308   16.5929 C   0  0  0  0  0  0  0  0  0  0  0  0
   10.5089   -3.9468   21.5328 C   0  0  0  0  0  0  0  0  0  0  0  0
    3.1013   -9.4316   16.1696 C   0  0  0  0  0  0  0  0  0  0  0  0
    1.1359  -12.7062   20.7475 C   0  0  0  0  0  0  0  0  0  0  0  0
   10.8969   -3.8755   22.8476 C   0  0  0  0  0  0  0  0  0  0  0  0
   10.7230   -3.9597   17.0482 C   0  0  0  0  0  0  0  0  0  0  0  0
   13.0674   -4.8832   22.2385 C   0  0  0  0  0  0  0  0  0  0  0  0
    5.3168   -9.2773   15.2126 C   0  0  0  0  0  0  0  0  0  0  0  0
   10.1238   -5.8538   18.9449 C   0  0  0  0  0  0  0  0  0  0  0  0
    1.7261  -11.1844   19.0109 C   0  0  0  0  0  0  0  0  0  0  0  0
   12.1462   -4.3187   23.1568 C   0  0  0  0  0  0  0  0  0  0  0  0
    9.9455   -5.0717   16.7140 C   0  0  0  0  0  0  0  0  0  0  0  0
    9.7097   -5.9939   17.6557 C   0  0  0  0  0  0  0  0  0  0  0  0
    4.4279   -9.7233   16.2499 C   0  0  0  0  0  0  0  0  0  0  0  0
   13.7948   -4.2767   24.9222 N   0  0  0  0  0  0  0  0  0  0  0  0
    9.0728   -7.2019   17.4308 C   0  0  0  0  0  0  0  0  0  0  0  0
    6.1855   -6.9816   15.3606 N   0  0  0  0  0  0  0  0  0  0  0  0
   11.3198   -4.5840   20.5856 C   0  0  0  0  0  0  0  0  0  0  0  0
    2.0841  -12.2079   19.8721 C   0  0  0  0  0  0  0  0  0  0  0  0
    6.2619   -8.2703   15.6300 N   0  0  0  0  0  0  0  0  0  0  0  0
    0.4271  -10.6728   19.0983 C   0  0  0  0  0  0  0  0  0  0  0  0
    2.2557   -9.8388   17.0651 N   0  0  0  0  0  0  0  0  0  0  0  0
   11.1141   -3.1081   16.1640 N   0  0  0  0  0  0  0  0  0  0  0  0
   11.1550   -3.8208   18.3369 N   0  0  0  0  0  0  0  0  0  0  0  0
   12.6049   -4.2177   24.5060 C   0  0  0  0  0  0  0  0  0  0  0  0
   -0.1121  -12.2063   20.7897 C   0  0  0  0  0  0  0  0  0  0  0  0
    4.8468  -10.4854   17.3566 C   0  0  0  0  0  0  0  0  0  0  0  0
   -0.4785  -11.1683   20.0109 C   0  0  0  0  0  0  0  0  0  0  0  0
    2.6454  -10.6488   18.1141 C   0  0  0  0  0  0  0  0  0  0  0  0
    7.3341   -8.5077   16.3237 C   0  0  0  0  0  0  0  0  0  0  0  0
   10.8929   -4.7112   19.2903 C   0  0  0  0  0  0  0  0  0  0  0  0
    3.9991  -10.9288   18.2449 N   0  0  0  0  0  0  0  0  0  0  0  0
    7.1737   -6.3637   15.9403 N   0  0  0  0  0  0  0  0  0  0  0  0
  1  8  4  0
  1 19  4  0
  2 17  1  0
  2 31  4  0
  2 34  4  0
  3  6  4  0
  3 19  4  0
  4 15  4  0
  4 23  4  0
  5 20  4  0
  5 27  4  0
  6 12  4  0
  7 13  4  0
  7 24  2  0
  7 25  4  0
  8 12  4  0
  9 15  1  0
  9 21  1  0
 10 14  4  0
 10 32  4  0
 11 20  4  0
 11 22  4  0
 11 30  1  0
 12 26  1  0
 13 14  4  0
 14 17  1  0
 15 28  4  0
 16 26  1  0
 18 21  4  0
 18 34  4  0
 19 32  1  0
 21 31  4  0
 22 29  4  0
 23 30  4  0
 25 32  4  0
 27 29  4  0
 28 33  4  0
 30 33  4  0
M  END
$$$$

 Created by Python create_sdf_string function

 34 75  0  0  0  0  0  0  0  0999 V2000
   12.6448   -4.7423   20.8416 C   0  0  0  0  0  0  0  0  0  0  0  0
    7.8440   -7.4251   16.8607 C   0  0  0  0  0  0  0  0  0  0  0  0
   10.4315   -4.1608   21.5466 C   0  0  0  0  0  0  0  0  0  0  0  0
    3.3051   -9.4080   16.0056 C   0  0  0  0  0  0  0  0  0  0  0  0
    0.5808  -12.3597   20.5753 C   0  0  0  0  0  0  0  0  0  0  0  0
   10.7446   -3.8646   22.6450 C   0  0  0  0  0  0  0  0  0  0  0  0
   10.9373   -3.9365   17.1545 C   0  0  0  0  0  0  0  0  0  0  0  0
   13.3052   -4.9011   22.2895 C   0  0  0  0  0  0  0  0  0  0  0  0
    5.2499   -9.3008   15.4009 C   0  0  0  0  0  0  0  0  0  0  0  0
   10.3216   -6.0001   18.6444 C   0  0  0  0  0  0  0  0  0  0  0  0
    1.5359  -11.1101   19.0904 C   0  0  0  0  0  0  0  0  0  0  0  0
   11.8365   -4.3496   23.2708 C   0  0  0  0  0  0  0  0  0  0  0  0
    9.8286   -5.3190   17.1013 F   0  0  0  0  0  0  0  0  0  0  0  0
    9.9080   -6.0698   17.6130 C   0  0  0  0  0  0  0  0  0  0  0  0
    4.3933   -9.5289   16.1521 C   0  0  0  0  0  0  0  0  0  0  0  0
   13.7885   -4.1680   24.9385 N   0  0  0  0  0  0  0  0  0  0  0  0
    8.5757   -7.0308   17.7661 P   0  0  0  0  0  0  0  0  0  0  0  0
    6.0278   -7.0673   15.2665 N   0  0  0  0  0  0  0  0  0  0  0  0
   11.2297   -4.8268   20.3991 C   0  0  0  0  0  0  0  0  0  0  0  0
    2.3815  -12.1567   20.0600 Cl  0  0  0  0  0  0  0  0  0  0  0  0
    6.5204   -8.1900   15.3525 N   0  0  0  0  0  0  0  0  0  0  0  0
    0.4099  -10.5086   19.0755 C   0  0  0  0  0  0  0  0  0  0  0  0
    2.0795   -9.7791   17.0648 N   0  0  0  0  0  0  0  0  0  0  0  0
   11.0283   -3.1988   16.3003 N   0  0  0  0  0  0  0  0  0  0  0  0
   10.8647   -3.7157   18.3746 N   0  0  0  0  0  0  0  0  0  0  0  0
   12.6161   -4.2136   24.6698 C   0  0  0  0  0  0  0  0  0  0  0  0
    0.0400  -12.0358   20.7065 C   0  0  0  0  0  0  0  0  0  0  0  0
    4.8390  -10.4737   17.2117 C   0  0  0  0  0  0  0  0  0  0  0  0
   -0.5147  -11.0940   19.9653 C   0  0  0  0  0  0  0  0  0  0  0  0
    2.7075  -10.5720   18.3853 C   0  0  0  0  0  0  0  0  0  0  0  0
    7.6033   -8.1735   16.5189 C   0  0  0  0  0  0  0  0  0  0  0  0
   10.8381   -4.6915   19.1160 C   0  0  0  0  0  0  0  0  0  0  0  0
    3.9094  -10.9467   18.2649 N   0  0  0  0  0  0  0  0  0  0  0  0
    6.9774   -6.3833   16.0158 N   0  0  0  0  0  0  0  0  0  0  0  0
  1  8  2  0
  1 18  3  0
  1 19  4  0
  2  4  2  0
  2 17  1  0
  2 31  4  0
  2 34  4  0
  3  6  4  0
  3 19  4  0
  3 29  2  0
  4  8  2  0
  4 12  2  0
  4 15  2  0
  4 17  3  0
  4 23  4  0
  4 28  1  0
  4 30  3  0
  5 14  2  0
  5 20  3  0
  5 27  4  0
  6 20  2  0
  6 24  2  0
  7 13  4  0
  7 20  2  0
  7 24  3  0
  7 25  4  0
  8 12  4  0
  8 27  4  0
  8 29  4  0
  8 32  2  0
  8 33  3  0
  9 15  1  0
  9 21  1  0
  9 26  3  0
  9 31  4  0
 10 23  3  0
 10 32  4  0
 11 20  4  0
 11 22  4  0
 11 25  1  0
 11 30  1  0
 12 26  1  0
 13 14  4  0
 14 28  4  0
 15 28  4  0
 15 32  1  0
 16 26  1  0
 16 27  4  0
 17 26  3  0
 18 20  4  0
 19 20  4  0
 19 30  1  0
 19 32  1  0
 20 23  4  0
 21 22  1  0
 21 25  3  0
 21 27  1  0
 21 30  2  0
 21 31  4  0
 21 33  2  0
 22 29  4  0
 23 27  1  0
 23 29  4  0
 23 30  4  0
 24 25  4  0
 24 29  1  0
 25 26  4  0
 25 32  4  0
 27 29  4  0
 27 30  3  0
 28 33  4  0
 28 34  2  0
 29 30  4  0
 29 34  3  0
 30 33  4  0
M  END
$$$$

 Created by Python create_sdf_string function

 34 38  0  0  0  0  0  0  0  0999 V2000
   12.6457   -4.9516   20.9883 C   0  0  0  0  0  0  0  0  0  0  0  0
    7.7942   -7.2643   16.7271 C   0  0  0  0  0  0  0  0  0  0  0  0
   10.4708   -4.0674   21.5446 C   0  0  0  0  0  0  0  0  0  0  0  0
    3.1492   -9.3623   16.1834 C   0  0  0  0  0  0  0  0  0  0  0  0
    1.0465  -12.5238   20.8027 C   0  0  0  0  0  0  0  0  0  0  0  0
   10.8293   -3.9702   22.8885 C   0  0  0  0  0  0  0  0  0  0  0  0
   10.6498   -4.0331   17.1340 C   0  0  0  0  0  0  0  0  0  0  0  0
   13.0892   -4.7766   22.3132 C   0  0  0  0  0  0  0  0  0  0  0  0
    5.3754   -9.3206   15.1965 C   0  0  0  0  0  0  0  0  0  0  0  0
   10.2219   -5.9576   19.0244 C   0  0  0  0  0  0  0  0  0  0  0  0
    1.6630  -11.0550   19.0199 C   0  0  0  0  0  0  0  0  0  0  0  0
   12.0942   -4.2986   23.2131 C   0  0  0  0  0  0  0  0  0  0  0  0
    9.9089   -5.1555   16.8493 N   0  0  0  0  0  0  0  0  0  0  0  0
    9.6203   -6.0610   17.7805 C   0  0  0  0  0  0  0  0  0  0  0  0
    4.4822   -9.6962   16.2162 C   0  0  0  0  0  0  0  0  0  0  0  0
   13.7299   -4.2179   24.9952 N   0  0  0  0  0  0  0  0  0  0  0  0
    8.7955   -7.1179   17.6705 C   0  0  0  0  0  0  0  0  0  0  0  0
    6.1661   -6.9944   15.3398 N   0  0  0  0  0  0  0  0  0  0  0  0
   11.3625   -4.5983   20.6064 C   0  0  0  0  0  0  0  0  0  0  0  0
    2.0094  -12.0475   19.9136 C   0  0  0  0  0  0  0  0  0  0  0  0
    6.2808   -8.2742   15.5997 N   0  0  0  0  0  0  0  0  0  0  0  0
    0.3570  -10.5351   19.0421 C   0  0  0  0  0  0  0  0  0  0  0  0
    2.2689   -9.7637   17.0477 N   0  0  0  0  0  0  0  0  0  0  0  0
   10.9837   -3.1322   16.2255 N   0  0  0  0  0  0  0  0  0  0  0  0
   11.0945   -3.8440   18.4001 N   0  0  0  0  0  0  0  0  0  0  0  0
   12.4791   -4.1881   24.6199 C   0  0  0  0  0  0  0  0  0  0  0  0
   -0.1706  -12.0491   20.7972 C   0  0  0  0  0  0  0  0  0  0  0  0
    4.8309  -10.4476   17.3665 C   0  0  0  0  0  0  0  0  0  0  0  0
   -0.5662  -11.0370   19.9663 C   0  0  0  0  0  0  0  0  0  0  0  0
    2.6128  -10.5672   18.1293 C   0  0  0  0  0  0  0  0  0  0  0  0
    7.3182   -8.4787   16.3901 C   0  0  0  0  0  0  0  0  0  0  0  0
   10.9364   -4.7760   19.3384 C   0  0  0  0  0  0  0  0  0  0  0  0
    3.9686  -10.8725   18.2658 N   0  0  0  0  0  0  0  0  0  0  0  0
    7.0561   -6.3274   16.0482 N   0  0  0  0  0  0  0  0  0  0  0  0
  1  8  4  0
  1 19  4  0
  2 17  1  0
  2 31  4  0
  2 34  4  0
  3  6  4  0
  3 19  4  0
  4 15  4  0
  4 23  4  0
  5 20  4  0
  5 27  4  0
  6 12  4  0
  7 13  4  0
  7 24  1  0
  7 25  4  0
  8 12  4  0
  9 15  1  0
  9 21  1  0
 10 14  4  0
 10 32  4  0
 11 20  4  0
 11 22  4  0
 11 30  1  0
 12 26  1  0
 13 14  4  0
 14 17  1  0
 15 28  4  0
 16 26  1  0
 18 21  4  0
 18 34  4  0
 19 32  1  0
 21 31  4  0
 22 29  4  0
 23 30  4  0
 25 32  4  0
 27 29  4  0
 28 33  4  0
 30 33  4  0
M  END
$$$$

 Created by Python create_sdf_string function

 34 63  0  0  0  0  0  0  0  0999 V2000
   12.5466   -4.8637   20.9907 C   0  0  0  0  0  0  0  0  0  0  0  0
   10.3633   -4.1749   21.5032 C   0  0  0  0  0  0  0  0  0  0  0  0
    3.1022   -9.3252   16.1716 C   0  0  0  0  0  0  0  0  0  0  0  0
    0.8391  -12.5944   21.1345 C   0  0  0  0  0  0  0  0  0  0  0  0
   11.0108   -4.0402   22.9527 C   0  0  0  0  0  0  0  0  0  0  0  0
   10.6842   -4.1828   16.9298 C   0  0  0  0  0  0  0  0  0  0  0  0
   13.4508   -4.9505   22.6816 C   0  0  0  0  0  0  0  0  0  0  0  0
    5.6256   -9.5595   15.0929 C   0  0  0  0  0  0  0  0  0  0  0  0
   10.1154   -6.0860   19.2041 C   0  0  0  0  0  0  0  0  0  0  0  0
    1.6627  -11.0446   19.1032 C   0  0  0  0  0  0  0  0  0  0  0  0
   12.1925   -4.0010   23.5569 C   0  0  0  0  0  0  0  0  0  0  0  0
    9.8777   -5.1337   16.9963 N   0  0  0  0  0  0  0  0  0  0  0  0
    9.5044   -5.9896   17.5898 C   0  0  0  0  0  0  0  0  0  0  0  0
    4.4942   -9.7336   16.1308 C   0  0  0  0  0  0  0  0  0  0  0  0
   13.6970   -4.2057   24.9260 N   0  0  0  0  0  0  0  0  0  0  0  0
    8.5239   -7.0071   17.6794 C   0  0  0  0  0  0  0  0  0  0  0  0
    6.2938   -7.0478   15.4277 N   0  0  0  0  0  0  0  0  0  0  0  0
   11.2668   -4.4710   20.4102 C   0  0  0  0  0  0  0  0  0  0  0  0
    1.9072  -11.8096   20.1400 C   0  0  0  0  0  0  0  0  0  0  0  0
    6.2766   -8.3092   15.6893 N   0  0  0  0  0  0  0  0  0  0  0  0
    0.3406  -10.4203   19.0450 C   0  0  0  0  0  0  0  0  0  0  0  0
    2.0146   -9.3631   17.2095 P   0  0  0  0  0  0  0  0  0  0  0  0
   10.9729   -3.1076   16.1603 N   0  0  0  0  0  0  0  0  0  0  0  0
   11.4318   -3.8083   18.3523 N   0  0  0  0  0  0  0  0  0  0  0  0
   12.5250   -4.3068   24.4727 C   0  0  0  0  0  0  0  0  0  0  0  0
   -0.0823  -11.9697   20.8963 C   0  0  0  0  0  0  0  0  0  0  0  0
    4.9776  -10.3098   17.4616 C   0  0  0  0  0  0  0  0  0  0  0  0
    2.7144  -10.7528   18.1994 C   0  0  0  0  0  0  0  0  0  0  0  0
    6.9040   -8.4658   16.3825 C   0  0  0  0  0  0  0  0  0  0  0  0
   11.0496   -4.6091   19.4071 C   0  0  0  0  0  0  0  0  0  0  0  0
    3.9631  -11.1103   18.1758 N   0  0  0  0  0  0  0  0  0  0  0  0
    7.3741   -6.0650   15.8322 N   0  0  0  0  0  0  0  0  0  0  0  0
    7.8428   -7.3595   16.9994 He  0  0  0  0  0  0  0  0  0  0  0  0
   -0.9611  -11.0356   20.0657 He  0  0  0  0  0  0  0  0  0  0  0  0
  1  6  3  0
  1  7  4  0
  1 18  4  0
  1 28  2  0
  2  5  4  0
  2 17  1  0
  2 18  4  0
  2 25  3  0
  3  6  1  0
  3 14  4  0
  3 15  3  0
  3 17  2  0
  3 20  3  0
  3 21  2  0
  3 22  4  0
  4 19  4  0
  4 26  4  0
  5 11  4  0
  5 18  1  0
  6 12  4  0
  6 23  1  0
  6 24  4  0
  6 25  1  0
  7 11  4  0
  7 12  2  0
  7 17  2  0
  7 20  4  0
  8 14  1  0
  8 16  4  0
  8 20  1  0
  9 13  4  0
  9 30  4  0
 10 19  4  0
 10 21  4  0
 10 22  4  0
 10 25  3  0
 10 28  1  0
 11 12  3  0
 11 25  4  0
 12 13  4  0
 12 23  1  0
 12 25  3  0
 13 16  1  0
 14 26  1  0
 14 27  4  0
 15 23  1  0
 15 25  1  0
 16 19  4  0
 16 25  4  0
 17 19  1  0
 17 20  4  0
 17 25  1  0
 17 31  3  0
 17 32  4  0
 18 30  1  0
 20 23  2  0
 20 25  2  0
 20 29  4  0
 22 28  4  0
 24 30  4  0
 25 29  4  0
 27 31  2  0
 28 31  4  0
M  END
$$$$

 Created by Python create_sdf_string function

 34 38  0  0  0  0  0  0  0  0999 V2000
   12.6986   -4.8905   21.0319 C   0  0  0  0  0  0  0  0  0  0  0  0
    7.7494   -7.2482   16.7623 C   0  0  0  0  0  0  0  0  0  0  0  0
   10.5273   -4.0504   21.6535 C   0  0  0  0  0  0  0  0  0  0  0  0
    3.1542   -9.3191   16.2290 C   0  0  0  0  0  0  0  0  0  0  0  0
    1.0141  -12.3998   21.0098 C   0  0  0  0  0  0  0  0  0  0  0  0
   10.9168   -3.9497   22.9842 C   0  0  0  0  0  0  0  0  0  0  0  0
   10.7080   -4.0990   17.1179 C   0  0  0  0  0  0  0  0  0  0  0  0
   13.1468   -4.7656   22.3676 C   0  0  0  0  0  0  0  0  0  0  0  0
    5.3933   -9.3272   15.2165 C   0  0  0  0  0  0  0  0  0  0  0  0
   10.1531   -5.8674   19.1310 C   0  0  0  0  0  0  0  0  0  0  0  0
    1.6357  -11.0055   19.1030 C   0  0  0  0  0  0  0  0  0  0  0  0
   12.1999   -4.3163   23.3114 C   0  0  0  0  0  0  0  0  0  0  0  0
    9.8308   -5.1065   16.8926 N   0  0  0  0  0  0  0  0  0  0  0  0
    9.5698   -5.9698   17.8809 C   0  0  0  0  0  0  0  0  0  0  0  0
    4.4664   -9.7318   16.2680 C   0  0  0  0  0  0  0  0  0  0  0  0
   13.6965   -4.2463   25.0992 N   0  0  0  0  0  0  0  0  0  0  0  0
    8.6970   -7.0577   17.7369 C   0  0  0  0  0  0  0  0  0  0  0  0
    6.2935   -7.0514   15.1888 N   0  0  0  0  0  0  0  0  0  0  0  0
   11.4127   -4.5727   20.6714 C   0  0  0  0  0  0  0  0  0  0  0  0
    1.9574  -11.9407   20.0797 C   0  0  0  0  0  0  0  0  0  0  0  0
    6.2672   -8.2676   15.6348 N   0  0  0  0  0  0  0  0  0  0  0  0
    0.2876  -10.5556   19.0768 C   0  0  0  0  0  0  0  0  0  0  0  0
    2.2672   -9.7044   17.0884 N   0  0  0  0  0  0  0  0  0  0  0  0
   11.0706   -3.2354   16.1319 N   0  0  0  0  0  0  0  0  0  0  0  0
   11.2677   -3.9498   18.3625 N   0  0  0  0  0  0  0  0  0  0  0  0
   12.6012   -4.1605   24.6513 C   0  0  0  0  0  0  0  0  0  0  0  0
   -0.2640  -11.9533   20.9463 C   0  0  0  0  0  0  0  0  0  0  0  0
    4.7793  -10.5668   17.3705 C   0  0  0  0  0  0  0  0  0  0  0  0
   -0.6532  -11.0226   20.0179 C   0  0  0  0  0  0  0  0  0  0  0  0
    2.5931  -10.5311   18.1917 C   0  0  0  0  0  0  0  0  0  0  0  0
    7.1592   -8.4174   16.5767 C   0  0  0  0  0  0  0  0  0  0  0  0
   10.9627   -4.7899   19.3632 C   0  0  0  0  0  0  0  0  0  0  0  0
    3.9313  -10.8895   18.2985 N   0  0  0  0  0  0  0  0  0  0  0  0
    7.2081   -6.3795   15.8659 N   0  0  0  0  0  0  0  0  0  0  0  0
  1  8  4  0
  1 19  4  0
  2 17  1  0
  2 31  4  0
  2 34  4  0
  3  6  4  0
  3 19  4  0
  4 15  4  0
  4 23  4  0
  5 20  4  0
  5 27  4  0
  6 12  4  0
  7 13  4  0
  7 24  1  0
  7 25  4  0
  8 12  4  0
  9 15  1  0
  9 21  1  0
 10 14  4  0
 10 32  4  0
 11 20  4  0
 11 22  4  0
 11 30  1  0
 12 26  1  0
 13 14  4  0
 14 17  1  0
 15 28  4  0
 16 26  1  0
 18 21  4  0
 18 34  4  0
 19 32  1  0
 21 31  4  0
 22 29  4  0
 23 30  4  0
 25 32  4  0
 27 29  4  0
 28 33  4  0
 30 33  4  0
M  END
$$$$

 Created by Python create_sdf_string function

 34 35  0  0  0  0  0  0  0  0999 V2000
   12.8665   -4.9974   21.0871 C   0  0  0  0  0  0  0  0  0  0  0  0
   10.2952   -4.1153   21.5075 C   0  0  0  0  0  0  0  0  0  0  0  0
    2.9440   -9.3179   16.1618 C   0  0  0  0  0  0  0  0  0  0  0  0
    0.8908  -12.5997   21.1607 C   0  0  0  0  0  0  0  0  0  0  0  0
   10.6420   -3.8088   16.8898 C   0  0  0  0  0  0  0  0  0  0  0  0
   13.2379   -4.7547   22.5444 C   0  0  0  0  0  0  0  0  0  0  0  0
    5.2939   -9.1071   15.2473 C   0  0  0  0  0  0  0  0  0  0  0  0
   10.0302   -5.7309   19.0164 C   0  0  0  0  0  0  0  0  0  0  0  0
    1.6624  -11.0348   19.1788 C   0  0  0  0  0  0  0  0  0  0  0  0
    9.6485   -5.4541   17.0017 N   0  0  0  0  0  0  0  0  0  0  0  0
    4.3517   -9.8072   16.4162 C   0  0  0  0  0  0  0  0  0  0  0  0
   13.7309   -4.4345   25.0369 N   0  0  0  0  0  0  0  0  0  0  0  0
    8.7282   -7.1267   17.6426 C   0  0  0  0  0  0  0  0  0  0  0  0
    6.0430   -7.0330   15.4120 N   0  0  0  0  0  0  0  0  0  0  0  0
   11.3581   -4.6700   20.8677 C   0  0  0  0  0  0  0  0  0  0  0  0
    0.3009  -10.7847   19.1367 C   0  0  0  0  0  0  0  0  0  0  0  0
    2.1145   -9.8638   17.3029 N   0  0  0  0  0  0  0  0  0  0  0  0
   11.1899   -3.1824   16.0719 N   0  0  0  0  0  0  0  0  0  0  0  0
   11.5258   -3.9236   17.9728 N   0  0  0  0  0  0  0  0  0  0  0  0
   12.7257   -4.0269   24.7765 C   0  0  0  0  0  0  0  0  0  0  0  0
   -0.2557  -12.0856   20.8623 C   0  0  0  0  0  0  0  0  0  0  0  0
    4.8238  -10.4522   17.4796 C   0  0  0  0  0  0  0  0  0  0  0  0
   -0.6208  -10.8279   19.9807 C   0  0  0  0  0  0  0  0  0  0  0  0
    2.6585  -10.6585   18.1843 C   0  0  0  0  0  0  0  0  0  0  0  0
    7.0220   -8.2581   16.5125 C   0  0  0  0  0  0  0  0  0  0  0  0
   11.0702   -4.8326   19.3198 C   0  0  0  0  0  0  0  0  0  0  0  0
    3.9811  -10.7973   18.2649 N   0  0  0  0  0  0  0  0  0  0  0  0
    7.2689   -6.3545   15.9494 N   0  0  0  0  0  0  0  0  0  0  0  0
    7.6600   -7.2241   16.7265 He  0  0  0  0  0  0  0  0  0  0  0  0
   10.8734   -4.0568   22.8740 He  0  0  0  0  0  0  0  0  0  0  0  0
   12.2012   -4.2624   23.5838 He  0  0  0  0  0  0  0  0  0  0  0  0
    9.4799   -5.7384   18.2862 He  0  0  0  0  0  0  0  0  0  0  0  0
    1.7791  -11.9146   20.0162 He  0  0  0  0  0  0  0  0  0  0  0  0
    6.3614   -8.3699   15.5640 He  0  0  0  0  0  0  0  0  0  0  0  0
  2  9  4  0
  2 15  4  0
  2 24  3  0
  3 11  4  0
  3 17  4  0
  4 18  2  0
  4 21  4  0
  4 22  2  0
  5  8  3  0
  5 10  4  0
  5 13  3  0
  5 18  2  0
  5 19  4  0
  6  9  4  0
  7 11  1  0
  8 10  2  0
  8 21  4  0
  8 26  4  0
  9 16  4  0
  9 24  1  0
 10 17  3  0
 10 19  2  0
 11 22  4  0
 12 20  1  0
 12 25  4  0
 14 28  4  0
 15 24  1  0
 15 26  1  0
 16 23  4  0
 18 25  1  0
 19 26  4  0
 21 23  4  0
 22 27  4  0
 23 24  4  0
 24 27  4  0
M  END
$$$$

 Created by Python create_sdf_string function

 34 38  0  0  0  0  0  0  0  0999 V2000
   12.7573   -4.9170   21.1247 C   0  0  0  0  0  0  0  0  0  0  0  0
    7.7073   -7.2497   16.7599 C   0  0  0  0  0  0  0  0  0  0  0  0
   10.5435   -4.1380   21.6767 C   0  0  0  0  0  0  0  0  0  0  0  0
    3.0340   -9.4197   16.2478 C   0  0  0  0  0  0  0  0  0  0  0  0
    0.9669  -12.4694   21.0092 C   0  0  0  0  0  0  0  0  0  0  0  0
   10.9183   -3.9810   22.9891 C   0  0  0  0  0  0  0  0  0  0  0  0
   10.7491   -4.1037   17.0590 C   0  0  0  0  0  0  0  0  0  0  0  0
   13.1834   -4.7850   22.4554 C   0  0  0  0  0  0  0  0  0  0  0  0
    5.2418   -9.2110   15.2805 C   0  0  0  0  0  0  0  0  0  0  0  0
   10.0872   -5.8178   19.1547 C   0  0  0  0  0  0  0  0  0  0  0  0
    1.6136  -11.0628   19.1252 C   0  0  0  0  0  0  0  0  0  0  0  0
   12.1900   -4.2686   23.3362 C   0  0  0  0  0  0  0  0  0  0  0  0
    9.7705   -5.0500   16.9202 N   0  0  0  0  0  0  0  0  0  0  0  0
    9.5316   -5.9400   17.9136 C   0  0  0  0  0  0  0  0  0  0  0  0
    4.3579   -9.6870   16.3251 C   0  0  0  0  0  0  0  0  0  0  0  0
   13.7579   -4.3994   25.1394 N   0  0  0  0  0  0  0  0  0  0  0  0
    8.6846   -7.0723   17.7588 C   0  0  0  0  0  0  0  0  0  0  0  0
    6.2076   -6.9943   15.2757 N   0  0  0  0  0  0  0  0  0  0  0  0
   11.4496   -4.5940   20.7215 C   0  0  0  0  0  0  0  0  0  0  0  0
    1.9276  -11.9923   20.1005 C   0  0  0  0  0  0  0  0  0  0  0  0
    6.1607   -8.2044   15.7044 N   0  0  0  0  0  0  0  0  0  0  0  0
    0.2881  -10.6010   19.1004 C   0  0  0  0  0  0  0  0  0  0  0  0
    2.1612   -9.8231   17.1195 N   0  0  0  0  0  0  0  0  0  0  0  0
   11.1059   -3.3169   16.1215 N   0  0  0  0  0  0  0  0  0  0  0  0
   11.3422   -4.0129   18.3034 N   0  0  0  0  0  0  0  0  0  0  0  0
   12.5712   -4.0370   24.7204 C   0  0  0  0  0  0  0  0  0  0  0  0
   -0.2940  -11.9862   20.9570 C   0  0  0  0  0  0  0  0  0  0  0  0
    4.7468  -10.4506   17.4483 C   0  0  0  0  0  0  0  0  0  0  0  0
   -0.6599  -11.0693   20.0217 C   0  0  0  0  0  0  0  0  0  0  0  0
    2.5551  -10.6034   18.2172 C   0  0  0  0  0  0  0  0  0  0  0  0
    7.0950   -8.4058   16.5675 C   0  0  0  0  0  0  0  0  0  0  0  0
   10.9833   -4.7832   19.3746 C   0  0  0  0  0  0  0  0  0  0  0  0
    3.8915  -10.8862   18.3472 N   0  0  0  0  0  0  0  0  0  0  0  0
    7.1474   -6.3700   15.9172 N   0  0  0  0  0  0  0  0  0  0  0  0
  1  8  4  0
  1 19  4  0
  2 17  1  0
  2 31  4  0
  2 34  4  0
  3  6  4  0
  3 19  4  0
  4 15  4  0
  4 23  4  0
  5 20  4  0
  5 27  4  0
  6 12  4  0
  7 13  4  0
  7 24  2  0
  7 25  4  0
  8 12  4  0
  9 15  1  0
  9 21  1  0
 10 14  4  0
 10 32  4  0
 11 20  4  0
 11 22  4  0
 11 30  1  0
 12 26  1  0
 13 14  4  0
 14 17  1  0
 15 28  4  0
 16 26  1  0
 18 21  4  0
 18 34  4  0
 19 32  1  0
 21 31  4  0
 22 29  4  0
 23 30  4  0
 25 32  4  0
 27 29  4  0
 28 33  4  0
 30 33  4  0
M  END
$$$$

 Created by Python create_sdf_string function

 34 55  0  0  0  0  0  0  0  0999 V2000
   12.8268   -5.0169   21.1678 C   0  0  0  0  0  0  0  0  0  0  0  0
    7.7293   -7.4576   16.6346 C   0  0  0  0  0  0  0  0  0  0  0  0
   10.8351   -4.0296   21.4634 C   0  0  0  0  0  0  0  0  0  0  0  0
    3.0939   -9.3989   16.1817 C   0  0  0  0  0  0  0  0  0  0  0  0
    0.9143  -12.5205   21.0275 C   0  0  0  0  0  0  0  0  0  0  0  0
   10.9148   -4.0414   23.0125 C   0  0  0  0  0  0  0  0  0  0  0  0
   10.4263   -4.0982   16.9137 C   0  0  0  0  0  0  0  0  0  0  0  0
   13.1671   -4.8129   22.4482 C   0  0  0  0  0  0  0  0  0  0  0  0
    5.2365   -9.3027   15.0027 O   0  0  0  0  0  0  0  0  0  0  0  0
   10.0006   -5.5761   19.1300 C   0  0  0  0  0  0  0  0  0  0  0  0
    1.4760  -11.1356   18.9279 C   0  0  0  0  0  0  0  0  0  0  0  0
   12.4078   -4.3702   23.1624 C   0  0  0  0  0  0  0  0  0  0  0  0
    9.6943   -5.1414   16.9070 N   0  0  0  0  0  0  0  0  0  0  0  0
    9.4799   -5.9579   17.8028 C   0  0  0  0  0  0  0  0  0  0  0  0
    4.5286   -9.6933   16.4094 C   0  0  0  0  0  0  0  0  0  0  0  0
   13.9110   -4.4742   25.1828 N   0  0  0  0  0  0  0  0  0  0  0  0
    8.5619   -6.9244   17.9718 C   0  0  0  0  0  0  0  0  0  0  0  0
    6.2622   -7.0755   15.3321 N   0  0  0  0  0  0  0  0  0  0  0  0
   11.4168   -4.7067   20.6956 C   0  0  0  0  0  0  0  0  0  0  0  0
    2.0845  -11.9401   19.9689 C   0  0  0  0  0  0  0  0  0  0  0  0
    6.1138   -8.3770   15.7584 N   0  0  0  0  0  0  0  0  0  0  0  0
    0.1474  -10.6150   19.0215 C   0  0  0  0  0  0  0  0  0  0  0  0
    2.2766   -9.8338   17.3134 N   0  0  0  0  0  0  0  0  0  0  0  0
   11.2082   -3.2572   16.2291 N   0  0  0  0  0  0  0  0  0  0  0  0
   11.4007   -3.8813   18.2626 N   0  0  0  0  0  0  0  0  0  0  0  0
   12.6124   -3.9947   24.8324 C   0  0  0  0  0  0  0  0  0  0  0  0
   -0.0863  -12.1300   20.8518 C   0  0  0  0  0  0  0  0  0  0  0  0
    4.6977  -10.5763   17.3214 C   0  0  0  0  0  0  0  0  0  0  0  0
   -0.8917  -11.1079   19.9227 C   0  0  0  0  0  0  0  0  0  0  0  0
    2.5000  -10.7142   18.0431 C   0  0  0  0  0  0  0  0  0  0  0  0
    7.1489   -8.3777   16.4176 C   0  0  0  0  0  0  0  0  0  0  0  0
   10.9587   -4.6921   19.4491 C   0  0  0  0  0  0  0  0  0  0  0  0
    7.2827   -6.3530   15.7442 N   0  0  0  0  0  0  0  0  0  0  0  0
    3.8575  -10.5997   18.3961 He  0  0  0  0  0  0  0  0  0  0  0  0
  1  8  4  0
  1 19  4  0
  1 33  4  0
  2 31  4  0
  2 33  4  0
  3  6  4  0
  3 12  1  0
  3 19  4  0
  3 33  2  0
  4 15  4  0
  4 23  4  0
  5 10  1  0
  5 11  3  0
  5 17  2  0
  5 20  4  0
  6 10  1  0
  6 12  4  0
  6 16  4  0
  6 18  1  0
  6 23  3  0
  7 13  4  0
  7 24  2  0
  7 25  4  0
  8  9  3  0
  8 12  4  0
  9 20  2  0
  9 21  1  0
 10 14  4  0
 10 28  3  0
 10 30  4  0
 10 32  4  0
 11 13  3  0
 11 20  4  0
 11 21  4  0
 11 22  4  0
 12 17  3  0
 12 25  1  0
 12 26  1  0
 13 14  4  0
 14 17  1  0
 15 28  4  0
 16 17  4  0
 16 24  3  0
 16 26  1  0
 18 21  4  0
 18 33  4  0
 19 26  3  0
 19 32  1  0
 21 31  4  0
 21 33  4  0
 22 29  4  0
 23 30  4  0
 25 32  3  0
 27 29  4  0
 27 31  4  0
M  END
$$$$

 Created by Python create_sdf_string function

 34 38  0  0  0  0  0  0  0  0999 V2000
   12.7585   -4.9727   21.0984 C   0  0  0  0  0  0  0  0  0  0  0  0
    7.7256   -7.2833   16.7132 C   0  0  0  0  0  0  0  0  0  0  0  0
   10.6314   -4.0493   21.6699 C   0  0  0  0  0  0  0  0  0  0  0  0
    3.0608   -9.4083   16.2217 C   0  0  0  0  0  0  0  0  0  0  0  0
    0.9831  -12.4660   20.9553 C   0  0  0  0  0  0  0  0  0  0  0  0
   11.0262   -3.9009   22.9622 C   0  0  0  0  0  0  0  0  0  0  0  0
   10.7003   -4.1062   17.1072 C   0  0  0  0  0  0  0  0  0  0  0  0
   13.2291   -4.8807   22.3970 C   0  0  0  0  0  0  0  0  0  0  0  0
    5.2714   -9.2666   15.2244 C   0  0  0  0  0  0  0  0  0  0  0  0
   10.0389   -5.7622   19.1790 C   0  0  0  0  0  0  0  0  0  0  0  0
    1.5802  -11.0681   19.0569 C   0  0  0  0  0  0  0  0  0  0  0  0
   12.2762   -4.2927   23.3053 C   0  0  0  0  0  0  0  0  0  0  0  0
    9.7526   -5.0612   16.9144 N   0  0  0  0  0  0  0  0  0  0  0  0
    9.4667   -5.8996   17.9291 C   0  0  0  0  0  0  0  0  0  0  0  0
    4.3927   -9.6811   16.2835 C   0  0  0  0  0  0  0  0  0  0  0  0
   13.8357   -4.4427   25.1404 N   0  0  0  0  0  0  0  0  0  0  0  0
    8.6166   -7.0471   17.7645 C   0  0  0  0  0  0  0  0  0  0  0  0
    6.2575   -7.0986   15.1510 N   0  0  0  0  0  0  0  0  0  0  0  0
   11.4830   -4.5870   20.7036 C   0  0  0  0  0  0  0  0  0  0  0  0
    1.9513  -11.9717   20.0284 C   0  0  0  0  0  0  0  0  0  0  0  0
    6.2077   -8.2827   15.6313 N   0  0  0  0  0  0  0  0  0  0  0  0
    0.2246  -10.6996   18.9838 C   0  0  0  0  0  0  0  0  0  0  0  0
    2.1825   -9.7957   17.0802 N   0  0  0  0  0  0  0  0  0  0  0  0
   11.0764   -3.3224   16.1578 N   0  0  0  0  0  0  0  0  0  0  0  0
   11.2714   -3.9548   18.3520 N   0  0  0  0  0  0  0  0  0  0  0  0
   12.6645   -4.0957   24.6784 C   0  0  0  0  0  0  0  0  0  0  0  0
   -0.2857  -12.0514   20.8805 C   0  0  0  0  0  0  0  0  0  0  0  0
    4.7698  -10.4414   17.4021 C   0  0  0  0  0  0  0  0  0  0  0  0
   -0.7106  -11.1751   19.9239 C   0  0  0  0  0  0  0  0  0  0  0  0
    2.5256  -10.5723   18.1605 C   0  0  0  0  0  0  0  0  0  0  0  0
    7.1429   -8.4547   16.5354 C   0  0  0  0  0  0  0  0  0  0  0  0
   10.9568   -4.7498   19.3912 C   0  0  0  0  0  0  0  0  0  0  0  0
    3.9059  -10.8833   18.2767 N   0  0  0  0  0  0  0  0  0  0  0  0
    7.2065   -6.4499   15.7756 N   0  0  0  0  0  0  0  0  0  0  0  0
  1  8  4  0
  1 19  4  0
  2 17  1  0
  2 31  4  0
  2 34  4  0
  3  6  4  0
  3 19  4  0
  4 15  4  0
  4 23  4  0
  5 20  4  0
  5 27  4  0
  6 12  4  0
  7 13  4  0
  7 24  2  0
  7 25  4  0
  8 12  4  0
  9 15  1  0
  9 21  1  0
 10 14  4  0
 10 32  4  0
 11 20  4  0
 11 22  4  0
 11 30  1  0
 12 26  1  0
 13 14  4  0
 14 17  1  0
 15 28  4  0
 16 26  1  0
 18 21  4  0
 18 34  4  0
 19 32  1  0
 21 31  4  0
 22 29  4  0
 23 30  4  0
 25 32  4  0
 27 29  4  0
 28 33  4  0
 30 33  4  0
M  END
$$$$

 Created by Python create_sdf_string function

 34 51  0  0  0  0  0  0  0  0999 V2000
   12.8443   -5.0311   21.1493 C   0  0  0  0  0  0  0  0  0  0  0  0
    7.6018   -7.1539   16.8156 C   0  0  0  0  0  0  0  0  0  0  0  0
   10.6941   -4.0060   21.6465 C   0  0  0  0  0  0  0  0  0  0  0  0
    3.0823   -9.4423   16.1848 C   0  0  0  0  0  0  0  0  0  0  0  0
    1.0307  -12.5408   21.1909 C   0  0  0  0  0  0  0  0  0  0  0  0
   11.1534   -3.8896   22.9879 C   0  0  0  0  0  0  0  0  0  0  0  0
   10.9707   -4.1698   16.9347 C   0  0  0  0  0  0  0  0  0  0  0  0
    5.1552   -9.2847   15.2736 C   0  0  0  0  0  0  0  0  0  0  0  0
    9.8258   -5.6305   19.3008 C   0  0  0  0  0  0  0  0  0  0  0  0
    1.5173  -11.0504   18.9120 C   0  0  0  0  0  0  0  0  0  0  0  0
   12.2760   -4.1573   23.4304 C   0  0  0  0  0  0  0  0  0  0  0  0
    9.8257   -5.1842   16.7764 Cl  0  0  0  0  0  0  0  0  0  0  0  0
    9.3896   -5.7365   17.9480 C   0  0  0  0  0  0  0  0  0  0  0  0
    4.2220   -9.6014   16.2421 C   0  0  0  0  0  0  0  0  0  0  0  0
   13.6444   -4.3398   24.9496 N   0  0  0  0  0  0  0  0  0  0  0  0
    8.7238   -7.1698   17.6180 C   0  0  0  0  0  0  0  0  0  0  0  0
    6.2189   -7.0353   14.9587 N   0  0  0  0  0  0  0  0  0  0  0  0
   11.4977   -4.6558   20.8232 C   0  0  0  0  0  0  0  0  0  0  0  0
    1.8940  -11.8987   20.0942 C   0  0  0  0  0  0  0  0  0  0  0  0
    6.3608   -8.2583   15.4438 N   0  0  0  0  0  0  0  0  0  0  0  0
    0.1478  -10.5601   19.0693 C   0  0  0  0  0  0  0  0  0  0  0  0
    2.0461   -9.8133   17.0438 N   0  0  0  0  0  0  0  0  0  0  0  0
   11.0382   -3.1481   16.2468 O   0  0  0  0  0  0  0  0  0  0  0  0
   11.5569   -3.9057   18.1119 N   0  0  0  0  0  0  0  0  0  0  0  0
   12.5479   -4.0580   24.6763 C   0  0  0  0  0  0  0  0  0  0  0  0
   -0.3426  -12.1112   21.0110 C   0  0  0  0  0  0  0  0  0  0  0  0
    4.7424  -10.2478   17.2991 C   0  0  0  0  0  0  0  0  0  0  0  0
   -0.7220  -11.0720   20.2508 C   0  0  0  0  0  0  0  0  0  0  0  0
    7.3574   -8.3122   16.5656 C   0  0  0  0  0  0  0  0  0  0  0  0
   11.0778   -4.7993   19.4362 C   0  0  0  0  0  0  0  0  0  0  0  0
    4.0049  -10.8161   18.2412 N   0  0  0  0  0  0  0  0  0  0  0  0
   13.1124   -5.1014   22.1753 He  0  0  0  0  0  0  0  0  0  0  0  0
    2.4403  -10.6182   18.1646 He  0  0  0  0  0  0  0  0  0  0  0  0
    7.2649   -6.3564   15.8057 He  0  0  0  0  0  0  0  0  0  0  0  0
  1  2  1  0
  1 18  4  0
  1 30  1  0
  2 16  1  0
  2 18  2  0
  2 19  3  0
  2 29  4  0
  3  6  4  0
  3 18  4  0
  4 14  4  0
  4 22  4  0
  5 19  4  0
  5 26  4  0
  6 11  4  0
  6 18  1  0
  6 19  3  0
  7 12  4  0
  7 17  1  0
  7 23  2  0
  7 24  4  0
  8 14  1  0
  8 16  3  0
  8 20  1  0
  8 30  3  0
  9 13  4  0
  9 20  1  0
  9 30  4  0
 10 19  4  0
 10 20  2  0
 10 21  4  0
 11 25  1  0
 12 13  4  0
 12 31  1  0
 13 16  1  0
 14 16  1  0
 14 25  1  0
 14 27  4  0
 15 25  1  0
 15 28  2  0
 16 23  3  0
 16 28  4  0
 17 20  4  0
 18 30  1  0
 19 24  4  0
 20 21  1  0
 20 29  4  0
 24 29  4  0
 24 30  4  0
 26 28  4  0
 27 31  4  0
 30 31  1  0
M  END
$$$$

 Created by Python create_sdf_string function

 34 38  0  0  0  0  0  0  0  0999 V2000
   12.7389   -5.0489   21.0894 C   0  0  0  0  0  0  0  0  0  0  0  0
    7.7437   -7.2254   16.6937 C   0  0  0  0  0  0  0  0  0  0  0  0
   10.6590   -3.9849   21.6443 C   0  0  0  0  0  0  0  0  0  0  0  0
    3.0018   -9.4165   16.1652 C   0  0  0  0  0  0  0  0  0  0  0  0
    1.0222  -12.4422   21.0430 C   0  0  0  0  0  0  0  0  0  0  0  0
   11.0423   -3.8234   22.9474 C   0  0  0  0  0  0  0  0  0  0  0  0
   10.8587   -4.0723   17.0691 C   0  0  0  0  0  0  0  0  0  0  0  0
   13.2057   -4.9227   22.3806 C   0  0  0  0  0  0  0  0  0  0  0  0
    5.2282   -9.2248   15.2141 C   0  0  0  0  0  0  0  0  0  0  0  0
    9.9645   -5.6871   19.1930 C   0  0  0  0  0  0  0  0  0  0  0  0
    1.5470  -11.0413   19.1024 C   0  0  0  0  0  0  0  0  0  0  0  0
   12.2717   -4.2921   23.2836 C   0  0  0  0  0  0  0  0  0  0  0  0
    9.9038   -5.0677   16.8712 C   0  0  0  0  0  0  0  0  0  0  0  0
    9.5060   -5.8797   17.9139 C   0  0  0  0  0  0  0  0  0  0  0  0
    4.3312   -9.6282   16.2588 C   0  0  0  0  0  0  0  0  0  0  0  0
   13.7340   -4.3640   25.0572 N   0  0  0  0  0  0  0  0  0  0  0  0
    8.6086   -6.9656   17.7651 C   0  0  0  0  0  0  0  0  0  0  0  0
    6.3067   -7.0715   15.0349 N   0  0  0  0  0  0  0  0  0  0  0  0
   11.4846   -4.5912   20.6941 C   0  0  0  0  0  0  0  0  0  0  0  0
    1.9247  -11.9491   20.0728 C   0  0  0  0  0  0  0  0  0  0  0  0
    6.2227   -8.2435   15.5740 N   0  0  0  0  0  0  0  0  0  0  0  0
    0.1942  -10.6348   19.1275 C   0  0  0  0  0  0  0  0  0  0  0  0
    2.1062   -9.8425   17.0371 N   0  0  0  0  0  0  0  0  0  0  0  0
   11.2085   -3.2629   16.1738 O   0  0  0  0  0  0  0  0  0  0  0  0
   11.4504   -4.0361   18.3152 N   0  0  0  0  0  0  0  0  0  0  0  0
   12.6331   -4.0972   24.6565 C   0  0  0  0  0  0  0  0  0  0  0  0
   -0.2873  -12.0068   21.0481 C   0  0  0  0  0  0  0  0  0  0  0  0
    4.6953  -10.3486   17.3945 C   0  0  0  0  0  0  0  0  0  0  0  0
   -0.7153  -11.0972   20.1022 C   0  0  0  0  0  0  0  0  0  0  0  0
    2.4920  -10.5591   18.1451 C   0  0  0  0  0  0  0  0  0  0  0  0
    7.1485   -8.3664   16.5134 C   0  0  0  0  0  0  0  0  0  0  0  0
   10.9900   -4.7589   19.3789 C   0  0  0  0  0  0  0  0  0  0  0  0
    3.8453  -10.8063   18.2853 N   0  0  0  0  0  0  0  0  0  0  0  0
    7.2109   -6.4042   15.7402 C   0  0  0  0  0  0  0  0  0  0  0  0
  1  8  4  0
  1 19  4  0
  2 17  1  0
  2 31  4  0
  2 34  4  0
  3  6  4  0
  3 19  4  0
  4 15  4  0
  4 23  4  0
  5 20  4  0
  5 27  4  0
  6 12  4  0
  7 13  4  0
  7 24  2  0
  7 25  4  0
  8 12  4  0
  9 15  1  0
  9 21  1  0
 10 14  4  0
 10 32  4  0
 11 20  4  0
 11 22  4  0
 11 30  1  0
 12 26  1  0
 13 14  4  0
 14 17  1  0
 15 28  4  0
 16 26  1  0
 18 21  4  0
 18 34  4  0
 19 32  1  0
 21 31  4  0
 22 29  4  0
 23 30  4  0
 25 32  4  0
 27 29  4  0
 28 33  4  0
 30 33  4  0
M  END
$$$$

 Created by Python create_sdf_string function

 34 61  0  0  0  0  0  0  0  0999 V2000
   12.7512   -5.1110   20.9579 C   0  0  0  0  0  0  0  0  0  0  0  0
    7.6976   -7.3012   16.6873 C   0  0  0  0  0  0  0  0  0  0  0  0
   10.5154   -4.0397   21.5171 C   0  0  0  0  0  0  0  0  0  0  0  0
    3.0159   -9.2720   16.2855 C   0  0  0  0  0  0  0  0  0  0  0  0
    0.9042  -12.4029   21.0760 C   0  0  0  0  0  0  0  0  0  0  0  0
   11.0183   -4.0916   22.9466 C   0  0  0  0  0  0  0  0  0  0  0  0
   10.8290   -3.9895   16.9948 C   0  0  0  0  0  0  0  0  0  0  0  0
   13.2254   -4.8175   22.5677 C   0  0  0  0  0  0  0  0  0  0  0  0
    5.2022   -9.1959   15.2618 C   0  0  0  0  0  0  0  0  0  0  0  0
    9.9360   -5.6420   19.2211 C   0  0  0  0  0  0  0  0  0  0  0  0
    1.7002  -11.0910   19.1603 C   0  0  0  0  0  0  0  0  0  0  0  0
   12.4197   -4.3173   23.2816 C   0  0  0  0  0  0  0  0  0  0  0  0
    9.8949   -5.1514   16.9083 C   0  0  0  0  0  0  0  0  0  0  0  0
    9.5605   -6.0864   17.9183 C   0  0  0  0  0  0  0  0  0  0  0  0
    4.3471   -9.7463   16.2832 C   0  0  0  0  0  0  0  0  0  0  0  0
   13.8561   -4.2787   24.9339 N   0  0  0  0  0  0  0  0  0  0  0  0
    8.7683   -6.7575   17.8537 C   0  0  0  0  0  0  0  0  0  0  0  0
    6.4628   -7.2845   15.0911 N   0  0  0  0  0  0  0  0  0  0  0  0
   11.4600   -4.6248   20.7522 C   0  0  0  0  0  0  0  0  0  0  0  0
    1.9162  -11.8026   20.0352 C   0  0  0  0  0  0  0  0  0  0  0  0
    6.1250   -8.3066   15.4214 N   0  0  0  0  0  0  0  0  0  0  0  0
    0.1353  -10.5898   19.2766 C   0  0  0  0  0  0  0  0  0  0  0  0
    2.2289   -9.8871   17.3368 N   0  0  0  0  0  0  0  0  0  0  0  0
   11.1723   -3.2923   16.1879 O   0  0  0  0  0  0  0  0  0  0  0  0
   11.4682   -3.8745   18.4056 N   0  0  0  0  0  0  0  0  0  0  0  0
   12.6631   -4.0677   24.7145 C   0  0  0  0  0  0  0  0  0  0  0  0
   -0.3165  -11.8825   21.1640 C   0  0  0  0  0  0  0  0  0  0  0  0
    4.7826  -10.2438   17.3835 C   0  0  0  0  0  0  0  0  0  0  0  0
   -0.7101  -11.2571   19.9909 C   0  0  0  0  0  0  0  0  0  0  0  0
    2.5319  -10.6267   18.0139 C   0  0  0  0  0  0  0  0  0  0  0  0
    6.8848   -8.5207   16.4898 C   0  0  0  0  0  0  0  0  0  0  0  0
   10.9297   -4.6896   19.3085 C   0  0  0  0  0  0  0  0  0  0  0  0
    3.7960  -10.6539   18.2976 N   0  0  0  0  0  0  0  0  0  0  0  0
    7.1782   -6.3251   15.9185 C   0  0  0  0  0  0  0  0  0  0  0  0
  1  4  4  0
  1  8  4  0
  1 19  4  0
  2 17  1  0
  2 31  4  0
  2 34  4  0
  3  6  4  0
  3 12  1  0
  3 18  1  0
  3 19  4  0
  3 24  2  0
  4 15  4  0
  4 23  4  0
  4 24  2  0
  5 20  4  0
  5 27  4  0
  6 12  4  0
  6 20  1  0
  7 11  2  0
  7 13  4  0
  7 14  2  0
  7 16  2  0
  7 22  4  0
  7 24  2  0
  7 25  4  0
  8 10  4  0
  8 12  4  0
  8 23  2  0
  9 15  1  0
  9 21  1  0
  9 33  2  0
 10 29  3  0
 10 32  4  0
 11 20  4  0
 11 22  4  0
 11 30  1  0
 12 22  3  0
 12 26  1  0
 13 25  3  0
 13 34  2  0
 14 17  1  0
 14 34  2  0
 15 19  2  0
 15 28  4  0
 16 24  2  0
 16 26  1  0
 17 21  4  0
 17 26  1  0
 18 21  4  0
 18 23  3  0
 18 34  4  0
 19 32  1  0
 20 25  3  0
 21 31  4  0
 22 29  4  0
 23 30  4  0
 25 32  4  0
 27 29  4  0
 28 33  4  0
 29 33  3  0
 30 33  4  0
M  END
$$$$

 Created by Python create_sdf_string function

 34 38  0  0  0  0  0  0  0  0999 V2000
   12.7251   -4.9678   21.0449 C   0  0  0  0  0  0  0  0  0  0  0  0
    7.6828   -7.2953   16.7384 C   0  0  0  0  0  0  0  0  0  0  0  0
   10.5869   -4.1044   21.6597 C   0  0  0  0  0  0  0  0  0  0  0  0
    3.0037   -9.4019   16.2517 C   0  0  0  0  0  0  0  0  0  0  0  0
    1.0214  -12.3436   21.1012 C   0  0  0  0  0  0  0  0  0  0  0  0
   11.0084   -3.9474   22.9623 C   0  0  0  0  0  0  0  0  0  0  0  0
   10.8578   -4.0591   17.0846 C   0  0  0  0  0  0  0  0  0  0  0  0
   13.2082   -4.8638   22.3658 C   0  0  0  0  0  0  0  0  0  0  0  0
    5.1778   -9.2546   15.2016 C   0  0  0  0  0  0  0  0  0  0  0  0
   10.0329   -5.7671   19.1476 C   0  0  0  0  0  0  0  0  0  0  0  0
    1.5680  -11.0314   19.1449 C   0  0  0  0  0  0  0  0  0  0  0  0
   12.2760   -4.3147   23.2831 C   0  0  0  0  0  0  0  0  0  0  0  0
    9.9221   -5.0849   16.8706 C   0  0  0  0  0  0  0  0  0  0  0  0
    9.5205   -5.9019   17.8900 C   0  0  0  0  0  0  0  0  0  0  0  0
    4.3244   -9.6334   16.2978 C   0  0  0  0  0  0  0  0  0  0  0  0
   13.8637   -4.2757   25.0075 N   0  0  0  0  0  0  0  0  0  0  0  0
    8.6551   -7.0074   17.7370 C   0  0  0  0  0  0  0  0  0  0  0  0
    6.3467   -7.1324   15.0203 N   0  0  0  0  0  0  0  0  0  0  0  0
   11.4558   -4.6038   20.6754 C   0  0  0  0  0  0  0  0  0  0  0  0
    1.9428  -11.8992   20.1518 C   0  0  0  0  0  0  0  0  0  0  0  0
    6.1673   -8.2838   15.5803 N   0  0  0  0  0  0  0  0  0  0  0  0
    0.2032  -10.6744   19.0944 C   0  0  0  0  0  0  0  0  0  0  0  0
    2.1373   -9.8025   17.1379 N   0  0  0  0  0  0  0  0  0  0  0  0
   11.2333   -3.2783   16.1726 O   0  0  0  0  0  0  0  0  0  0  0  0
   11.3447   -3.9309   18.3569 N   0  0  0  0  0  0  0  0  0  0  0  0
   12.6924   -4.1087   24.6217 C   0  0  0  0  0  0  0  0  0  0  0  0
   -0.2877  -11.9633   21.0516 C   0  0  0  0  0  0  0  0  0  0  0  0
    4.6849  -10.3708   17.4409 C   0  0  0  0  0  0  0  0  0  0  0  0
   -0.7044  -11.0994   20.0673 C   0  0  0  0  0  0  0  0  0  0  0  0
    2.5119  -10.5396   18.2219 C   0  0  0  0  0  0  0  0  0  0  0  0
    7.0177   -8.4011   16.5747 C   0  0  0  0  0  0  0  0  0  0  0  0
   10.9701   -4.7424   19.3748 C   0  0  0  0  0  0  0  0  0  0  0  0
    3.8525  -10.8124   18.3324 N   0  0  0  0  0  0  0  0  0  0  0  0
    7.2419   -6.4778   15.7351 C   0  0  0  0  0  0  0  0  0  0  0  0
  1  8  4  0
  1 19  4  0
  2 17  1  0
  2 31  4  0
  2 34  4  0
  3  6  4  0
  3 19  4  0
  4 15  4  0
  4 23  4  0
  5 20  4  0
  5 27  4  0
  6 12  4  0
  7 13  4  0
  7 24  2  0
  7 25  4  0
  8 12  4  0
  9 15  1  0
  9 21  1  0
 10 14  4  0
 10 32  4  0
 11 20  4  0
 11 22  4  0
 11 30  1  0
 12 26  1  0
 13 14  4  0
 14 17  1  0
 15 28  4  0
 16 26  1  0
 18 21  4  0
 18 34  4  0
 19 32  1  0
 21 31  4  0
 22 29  4  0
 23 30  4  0
 25 32  4  0
 27 29  4  0
 28 33  4  0
 30 33  4  0
M  END
$$$$

 Created by Python create_sdf_string function

 34 46  0  0  0  0  0  0  0  0999 V2000
   12.8314   -5.0444   21.0070 C   0  0  0  0  0  0  0  0  0  0  0  0
    7.4622   -7.2489   16.5624 C   0  0  0  0  0  0  0  0  0  0  0  0
   10.3446   -4.1498   21.7837 C   0  0  0  0  0  0  0  0  0  0  0  0
    3.0641   -9.4310   16.1610 C   0  0  0  0  0  0  0  0  0  0  0  0
    0.8242  -12.1431   21.2498 C   0  0  0  0  0  0  0  0  0  0  0  0
   11.0786   -3.9033   22.9619 C   0  0  0  0  0  0  0  0  0  0  0  0
   10.7065   -3.8660   17.4129 C   0  0  0  0  0  0  0  0  0  0  0  0
   13.1520   -4.7675   22.3143 C   0  0  0  0  0  0  0  0  0  0  0  0
    5.1122   -9.4119   15.2345 C   0  0  0  0  0  0  0  0  0  0  0  0
   10.1607   -5.6374   19.0370 C   0  0  0  0  0  0  0  0  0  0  0  0
    1.4819  -10.9069   19.0849 C   0  0  0  0  0  0  0  0  0  0  0  0
   12.3412   -4.2276   23.2253 C   0  0  0  0  0  0  0  0  0  0  0  0
    9.8217   -5.1664   17.0421 C   0  0  0  0  0  0  0  0  0  0  0  0
    9.5008   -6.0742   17.7045 C   0  0  0  0  0  0  0  0  0  0  0  0
    4.2343   -9.5352   16.1113 C   0  0  0  0  0  0  0  0  0  0  0  0
   13.7564   -4.1973   25.0468 N   0  0  0  0  0  0  0  0  0  0  0  0
    8.4895   -6.9637   17.4985 C   0  0  0  0  0  0  0  0  0  0  0  0
    1.8311  -12.0088   20.0396 C   0  0  0  0  0  0  0  0  0  0  0  0
    6.0729   -8.2627   15.6761 N   0  0  0  0  0  0  0  0  0  0  0  0
    0.1305  -10.7730   19.2415 C   0  0  0  0  0  0  0  0  0  0  0  0
    2.3822   -9.6829   16.9531 N   0  0  0  0  0  0  0  0  0  0  0  0
   11.1371   -3.1086   16.3092 O   0  0  0  0  0  0  0  0  0  0  0  0
   11.2990   -4.1119   18.2998 N   0  0  0  0  0  0  0  0  0  0  0  0
   12.7810   -4.0393   24.6487 P   0  0  0  0  0  0  0  0  0  0  0  0
   -0.1738  -11.9265   20.9627 C   0  0  0  0  0  0  0  0  0  0  0  0
    4.7392  -10.0918   17.5410 C   0  0  0  0  0  0  0  0  0  0  0  0
   -0.5657  -11.1281   20.2707 C   0  0  0  0  0  0  0  0  0  0  0  0
    2.4112  -10.5344   18.2341 C   0  0  0  0  0  0  0  0  0  0  0  0
    6.9556   -8.2957   16.5420 C   0  0  0  0  0  0  0  0  0  0  0  0
   11.0140   -4.6783   19.5184 C   0  0  0  0  0  0  0  0  0  0  0  0
    3.8952  -10.8981   18.4028 N   0  0  0  0  0  0  0  0  0  0  0  0
    7.4812   -6.3011   15.7284 Cl  0  0  0  0  0  0  0  0  0  0  0  0
    6.2518   -7.3861   15.0619 He  0  0  0  0  0  0  0  0  0  0  0  0
   11.3566   -4.5569   20.8075 He  0  0  0  0  0  0  0  0  0  0  0  0
  1  8  4  0
  1  9  2  0
  2  7  2  0
  2 17  1  0
  2 29  4  0
  2 32  4  0
  3  6  4  0
  3  7  1  0
  3 12  2  0
  3 23  1  0
  3 30  1  0
  4 15  4  0
  4 21  4  0
  5 18  4  0
  5 25  4  0
  6 12  4  0
  7 13  3  0
  7 14  3  0
  7 22  2  0
  7 23  4  0
  8 11  2  0
  8 12  4  0
  9 15  1  0
  9 19  1  0
 10 14  4  0
 10 30  4  0
 11 18  4  0
 11 20  4  0
 11 28  1  0
 12 24  1  0
 13 14  4  0
 13 20  4  0
 13 25  2  0
 14 17  1  0
 14 31  1  0
 15 26  4  0
 16 24  3  0
 19 29  4  0
 20 27  4  0
 22 29  3  0
 23 30  4  0
 25 27  4  0
 26 31  4  0
 27 30  4  0
 28 31  4  0
 30 32  1  0
M  END
$$$$

 Created by Python create_sdf_string function

 34 38  0  0  0  0  0  0  0  0999 V2000
   12.7130   -4.9559   21.0268 C   0  0  0  0  0  0  0  0  0  0  0  0
    7.7052   -7.2441   16.6644 C   0  0  0  0  0  0  0  0  0  0  0  0
   10.5635   -4.1089   21.6886 C   0  0  0  0  0  0  0  0  0  0  0  0
    2.9651   -9.4199   16.1907 C   0  0  0  0  0  0  0  0  0  0  0  0
    1.0345  -12.3115   21.1202 C   0  0  0  0  0  0  0  0  0  0  0  0
   11.0291   -3.9298   22.9885 C   0  0  0  0  0  0  0  0  0  0  0  0
   10.7802   -3.9745   17.1665 C   0  0  0  0  0  0  0  0  0  0  0  0
   13.2316   -4.8025   22.2806 C   0  0  0  0  0  0  0  0  0  0  0  0
    5.2015   -9.2938   15.2490 C   0  0  0  0  0  0  0  0  0  0  0  0
   10.0499   -5.8149   19.1082 C   0  0  0  0  0  0  0  0  0  0  0  0
    1.5352  -11.0122   19.1362 C   0  0  0  0  0  0  0  0  0  0  0  0
   12.3445   -4.2697   23.2194 C   0  0  0  0  0  0  0  0  0  0  0  0
    9.8371   -4.9796   16.8971 C   0  0  0  0  0  0  0  0  0  0  0  0
    9.5022   -5.8949   17.8565 C   0  0  0  0  0  0  0  0  0  0  0  0
    4.3088   -9.6466   16.3138 C   0  0  0  0  0  0  0  0  0  0  0  0
   13.6326   -4.1445   25.1377 N   0  0  0  0  0  0  0  0  0  0  0  0
    8.6587   -6.9791   17.6607 C   0  0  0  0  0  0  0  0  0  0  0  0
    6.3456   -7.2058   14.9547 C   0  0  0  0  0  0  0  0  0  0  0  0
   11.4237   -4.6238   20.7049 C   0  0  0  0  0  0  0  0  0  0  0  0
    1.9305  -11.8649   20.1600 C   0  0  0  0  0  0  0  0  0  0  0  0
    6.1560   -8.3001   15.5954 N   0  0  0  0  0  0  0  0  0  0  0  0
    0.1812  -10.6361   19.1178 C   0  0  0  0  0  0  0  0  0  0  0  0
    2.1004   -9.8289   17.0585 N   0  0  0  0  0  0  0  0  0  0  0  0
   11.1432   -3.1015   16.3040 O   0  0  0  0  0  0  0  0  0  0  0  0
   11.2744   -3.9012   18.4348 N   0  0  0  0  0  0  0  0  0  0  0  0
   12.9265   -4.1021   24.4601 C   0  0  0  0  0  0  0  0  0  0  0  0
   -0.2569  -11.8784   21.1063 C   0  0  0  0  0  0  0  0  0  0  0  0
    4.6764  -10.3362   17.5006 C   0  0  0  0  0  0  0  0  0  0  0  0
   -0.7023  -11.0649   20.0989 C   0  0  0  0  0  0  0  0  0  0  0  0
    2.4689  -10.5290   18.1972 C   0  0  0  0  0  0  0  0  0  0  0  0
    7.0077   -8.3254   16.5999 C   0  0  0  0  0  0  0  0  0  0  0  0
   10.9312   -4.7616   19.4143 C   0  0  0  0  0  0  0  0  0  0  0  0
    3.8304  -10.7413   18.3999 N   0  0  0  0  0  0  0  0  0  0  0  0
    7.2813   -6.5000   15.6121 N   0  0  0  0  0  0  0  0  0  0  0  0
  1  8  4  0
  1 19  4  0
  2 17  1  0
  2 31  4  0
  2 34  4  0
  3  6  4  0
  3 19  4  0
  4 15  4  0
  4 23  4  0
  5 20  4  0
  5 27  4  0
  6 12  4  0
  7 13  4  0
  7 24  2  0
  7 25  4  0
  8 12  4  0
  9 15  1  0
  9 21  1  0
 10 14  4  0
 10 32  4  0
 11 20  4  0
 11 22  4  0
 11 30  1  0
 12 26  1  0
 13 14  4  0
 14 17  1  0
 15 28  4  0
 16 26  3  0
 18 21  4  0
 18 34  4  0
 19 32  1  0
 21 31  4  0
 22 29  4  0
 23 30  4  0
 25 32  4  0
 27 29  4  0
 28 33  4  0
 30 33  4  0
M  END
$$$$

 Created by Python create_sdf_string function

 34 39  0  0  0  0  0  0  0  0999 V2000
   12.6836   -5.0122   20.9745 C   0  0  0  0  0  0  0  0  0  0  0  0
   10.6389   -4.1973   21.8341 Cl  0  0  0  0  0  0  0  0  0  0  0  0
    2.8074   -9.4817   16.0075 C   0  0  0  0  0  0  0  0  0  0  0  0
    0.9284  -12.3101   21.0942 C   0  0  0  0  0  0  0  0  0  0  0  0
   11.0880   -3.8214   22.8778 C   0  0  0  0  0  0  0  0  0  0  0  0
   10.8366   -4.0099   17.2011 C   0  0  0  0  0  0  0  0  0  0  0  0
   13.4088   -4.7613   22.3278 C   0  0  0  0  0  0  0  0  0  0  0  0
    5.2060   -9.3080   15.3545 C   0  0  0  0  0  0  0  0  0  0  0  0
   10.0526   -5.7496   19.1006 C   0  0  0  0  0  0  0  0  0  0  0  0
    1.5637  -11.1452   19.0783 C   0  0  0  0  0  0  0  0  0  0  0  0
   12.3763   -4.1077   23.2681 C   0  0  0  0  0  0  0  0  0  0  0  0
    9.7503   -5.1639   16.8297 C   0  0  0  0  0  0  0  0  0  0  0  0
    9.6067   -6.1494   17.8699 C   0  0  0  0  0  0  0  0  0  0  0  0
    4.4469   -9.6949   16.1238 C   0  0  0  0  0  0  0  0  0  0  0  0
    8.6392   -6.9773   17.3935 C   0  0  0  0  0  0  0  0  0  0  0  0
   11.3019   -4.3826   20.7360 C   0  0  0  0  0  0  0  0  0  0  0  0
    2.0151  -11.8595   20.0338 C   0  0  0  0  0  0  0  0  0  0  0  0
    0.1451  -10.5555   19.0340 C   0  0  0  0  0  0  0  0  0  0  0  0
    2.4551   -9.7953   17.1000 N   0  0  0  0  0  0  0  0  0  0  0  0
   11.1776   -3.1188   16.2429 O   0  0  0  0  0  0  0  0  0  0  0  0
   11.2909   -3.9034   18.4680 N   0  0  0  0  0  0  0  0  0  0  0  0
   12.9296   -4.1032   24.3784 C   0  0  0  0  0  0  0  0  0  0  0  0
   -0.3337  -11.7759   21.1550 C   0  0  0  0  0  0  0  0  0  0  0  0
    4.6306  -10.3758   17.5326 C   0  0  0  0  0  0  0  0  0  0  0  0
   -0.8919  -11.1596   20.1157 C   0  0  0  0  0  0  0  0  0  0  0  0
    6.8823   -8.2470   16.6161 C   0  0  0  0  0  0  0  0  0  0  0  0
   10.8423   -4.7099   19.5224 C   0  0  0  0  0  0  0  0  0  0  0  0
    3.9192  -10.7445   18.3839 N   0  0  0  0  0  0  0  0  0  0  0  0
    7.2538   -6.5611   15.5198 N   0  0  0  0  0  0  0  0  0  0  0  0
    7.8119   -7.2102   16.4455 He  0  0  0  0  0  0  0  0  0  0  0  0
   13.5967   -4.1837   25.0234 He  0  0  0  0  0  0  0  0  0  0  0  0
    6.5491   -7.0669   14.9824 He  0  0  0  0  0  0  0  0  0  0  0  0
    6.0331   -8.1306   15.6121 He  0  0  0  0  0  0  0  0  0  0  0  0
    2.5866  -10.5128   18.0851 He  0  0  0  0  0  0  0  0  0  0  0  0
  1  7  4  0
  1 16  4  0
  1 24  4  0
  2  5  4  0
  2  7  4  0
  2 10  1  0
  2 16  4  0
  2 22  1  0
  3  7  1  0
  3 14  4  0
  3 18  4  0
  3 19  4  0
  4  6  2  0
  5 11  4  0
  5 18  1  0
  6 12  4  0
  6 20  2  0
  6 21  4  0
  7 11  4  0
  7 20  3  0
  7 24  4  0
  8 14  1  0
  9 13  4  0
  9 27  4  0
 10 17  4  0
 10 18  4  0
 11 22  1  0
 12 13  4  0
 13 15  1  0
 14 24  4  0
 14 29  2  0
 16 27  1  0
 16 29  4  0
 18 25  4  0
 19 26  2  0
 21 22  3  0
 21 27  4  0
 23 25  4  0
 24 28  4  0
M  END
$$$$

 Created by Python create_sdf_string function

 34 38  0  0  0  0  0  0  0  0999 V2000
   12.6994   -4.9248   20.9799 C   0  0  0  0  0  0  0  0  0  0  0  0
    7.7481   -7.2347   16.5759 N   0  0  0  0  0  0  0  0  0  0  0  0
   10.6048   -4.0498   21.7002 C   0  0  0  0  0  0  0  0  0  0  0  0
    2.9683   -9.4720   16.1405 C   0  0  0  0  0  0  0  0  0  0  0  0
    1.0110  -12.2761   21.1240 C   0  0  0  0  0  0  0  0  0  0  0  0
   11.1156   -3.8702   22.9952 C   0  0  0  0  0  0  0  0  0  0  0  0
   10.7920   -3.9924   17.1459 C   0  0  0  0  0  0  0  0  0  0  0  0
   13.2833   -4.7650   22.2109 C   0  0  0  0  0  0  0  0  0  0  0  0
    5.2159   -9.2464   15.2469 C   0  0  0  0  0  0  0  0  0  0  0  0
   10.0307   -5.8187   19.1107 C   0  0  0  0  0  0  0  0  0  0  0  0
    1.5620  -11.0147   19.1113 C   0  0  0  0  0  0  0  0  0  0  0  0
   12.4357   -4.2360   23.1736 C   0  0  0  0  0  0  0  0  0  0  0  0
    9.9345   -5.0431   16.8477 C   0  0  0  0  0  0  0  0  0  0  0  0
    9.5640   -5.9420   17.8142 C   0  0  0  0  0  0  0  0  0  0  0  0
    4.3177   -9.6841   16.2852 C   0  0  0  0  0  0  0  0  0  0  0  0
   13.6366   -4.1671   25.1105 N   0  0  0  0  0  0  0  0  0  0  0  0
    8.7852   -7.0714   17.5374 C   0  0  0  0  0  0  0  0  0  0  0  0
    6.4217   -7.1189   14.9085 C   0  0  0  0  0  0  0  0  0  0  0  0
   11.4155   -4.5883   20.7003 C   0  0  0  0  0  0  0  0  0  0  0  0
    1.9310  -11.8620   20.1366 C   0  0  0  0  0  0  0  0  0  0  0  0
    6.1557   -8.2294   15.5685 N   0  0  0  0  0  0  0  0  0  0  0  0
    0.2038  -10.6553   19.0483 C   0  0  0  0  0  0  0  0  0  0  0  0
    2.1272   -9.8659   17.0321 N   0  0  0  0  0  0  0  0  0  0  0  0
   11.1913   -3.1592   16.2730 O   0  0  0  0  0  0  0  0  0  0  0  0
   11.2409   -3.8796   18.4347 N   0  0  0  0  0  0  0  0  0  0  0  0
   13.0324   -4.0882   24.4053 C   0  0  0  0  0  0  0  0  0  0  0  0
   -0.2960  -11.8630   21.0771 C   0  0  0  0  0  0  0  0  0  0  0  0
    4.6946  -10.3878   17.4555 C   0  0  0  0  0  0  0  0  0  0  0  0
   -0.7280  -11.0478   20.0447 C   0  0  0  0  0  0  0  0  0  0  0  0
    2.5091  -10.5408   18.1696 C   0  0  0  0  0  0  0  0  0  0  0  0
    6.9616   -8.2620   16.5907 C   0  0  0  0  0  0  0  0  0  0  0  0
   10.9171   -4.7483   19.4241 C   0  0  0  0  0  0  0  0  0  0  0  0
    3.8563  -10.7803   18.3431 N   0  0  0  0  0  0  0  0  0  0  0  0
    7.3984   -6.4868   15.4968 N   0  0  0  0  0  0  0  0  0  0  0  0
  1  8  4  0
  1 19  4  0
  2 17  1  0
  2 31  4  0
  2 34  4  0
  3  6  4  0
  3 19  4  0
  4 15  4  0
  4 23  4  0
  5 20  4  0
  5 27  4  0
  6 12  4  0
  7 13  4  0
  7 24  2  0
  7 25  4  0
  8 12  4  0
  9 15  1  0
  9 21  1  0
 10 14  4  0
 10 32  4  0
 11 20  4  0
 11 22  4  0
 11 30  1  0
 12 26  1  0
 13 14  4  0
 14 17  1  0
 15 28  4  0
 16 26  3  0
 18 21  4  0
 18 34  4  0
 19 32  1  0
 21 31  4  0
 22 29  4  0
 23 30  4  0
 25 32  4  0
 27 29  4  0
 28 33  4  0
 30 33  4  0
M  END
$$$$

 Created by Python create_sdf_string function

 34 52  0  0  0  0  0  0  0  0999 V2000
   12.5804   -4.9656   20.9833 C   0  0  0  0  0  0  0  0  0  0  0  0
    7.7819   -7.2640   16.6707 N   0  0  0  0  0  0  0  0  0  0  0  0
   10.5438   -3.9149   21.7797 C   0  0  0  0  0  0  0  0  0  0  0  0
    2.9035   -9.4197   16.0763 C   0  0  0  0  0  0  0  0  0  0  0  0
    0.7619  -12.1777   21.1590 C   0  0  0  0  0  0  0  0  0  0  0  0
   11.1122   -3.8296   23.1118 C   0  0  0  0  0  0  0  0  0  0  0  0
   10.8160   -3.9249   17.0461 C   0  0  0  0  0  0  0  0  0  0  0  0
   13.4792   -4.5626   22.2329 C   0  0  0  0  0  0  0  0  0  0  0  0
    5.1313   -9.2458   15.4227 C   0  0  0  0  0  0  0  0  0  0  0  0
   10.1289   -5.9023   19.0346 C   0  0  0  0  0  0  0  0  0  0  0  0
   12.5375   -4.2190   23.2322 S   0  0  0  0  0  0  0  0  0  0  0  0
   10.0171   -5.0715   16.8034 C   0  0  0  0  0  0  0  0  0  0  0  0
    9.7197   -5.9820   17.8896 C   0  0  0  0  0  0  0  0  0  0  0  0
    4.4107   -9.6206   16.2276 C   0  0  0  0  0  0  0  0  0  0  0  0
   13.5952   -4.3002   25.2131 N   0  0  0  0  0  0  0  0  0  0  0  0
    8.6987   -7.1204   17.7051 C   0  0  0  0  0  0  0  0  0  0  0  0
    6.4264   -7.1453   14.9071 C   0  0  0  0  0  0  0  0  0  0  0  0
   11.5087   -4.4912   20.8087 C   0  0  0  0  0  0  0  0  0  0  0  0
    2.0726  -11.9813   20.0711 C   0  0  0  0  0  0  0  0  0  0  0  0
    0.2475  -10.5516   19.0537 C   0  0  0  0  0  0  0  0  0  0  0  0
    2.0768   -9.8747   17.1115 F   0  0  0  0  0  0  0  0  0  0  0  0
   11.2431   -3.1428   16.2641 O   0  0  0  0  0  0  0  0  0  0  0  0
   11.3172   -3.9125   18.2555 N   0  0  0  0  0  0  0  0  0  0  0  0
   12.9847   -4.0428   24.4180 C   0  0  0  0  0  0  0  0  0  0  0  0
   -0.3663  -11.8456   21.0912 C   0  0  0  0  0  0  0  0  0  0  0  0
    4.7170  -10.2039   17.4410 C   0  0  0  0  0  0  0  0  0  0  0  0
   -0.6061  -10.8674   19.9040 C   0  0  0  0  0  0  0  0  0  0  0  0
    2.3709  -10.5812   18.0727 C   0  0  0  0  0  0  0  0  0  0  0  0
    7.0154   -8.1910   16.6113 C   0  0  0  0  0  0  0  0  0  0  0  0
   10.9051   -4.5427   19.3694 C   0  0  0  0  0  0  0  0  0  0  0  0
    3.8701  -10.6653   18.4369 N   0  0  0  0  0  0  0  0  0  0  0  0
    7.3402   -6.4239   15.7026 N   0  0  0  0  0  0  0  0  0  0  0  0
    1.4137  -11.0334   19.1494 He  0  0  0  0  0  0  0  0  0  0  0  0
    6.1801   -8.0428   15.6868 He  0  0  0  0  0  0  0  0  0  0  0  0
  1  8  4  0
  1 18  4  0
  2 16  1  0
  2 22  4  0
  2 25  4  0
  2 29  4  0
  2 32  4  0
  3  6  4  0
  4 14  4  0
  4 18  3  0
  4 21  4  0
  5  6  3  0
  5 16  4  0
  5 19  4  0
  5 25  4  0
  6 11  4  0
  6 28  1  0
  7 12  4  0
  7 22  2  0
  7 23  4  0
  7 26  4  0
  8 11  4  0
  8 12  1  0
  9 12  2  0
  9 13  1  0
  9 14  1  0
  9 15  3  0
  9 16  4  0
 10 13  4  0
 10 30  4  0
 11 24  1  0
 12 13  4  0
 13 14  1  0
 13 16  1  0
 14 26  4  0
 15 21  4  0
 15 24  3  0
 16 18  1  0
 16 22  3  0
 17 32  4  0
 18 20  2  0
 18 30  1  0
 20 21  4  0
 20 27  4  0
 21 28  4  0
 22 30  3  0
 23 26  3  0
 23 30  4  0
 25 27  4  0
 26 31  4  0
 27 31  1  0
 28 31  4  0
M  END
$$$$

 Created by Python create_sdf_string function

 34 38  0  0  0  0  0  0  0  0999 V2000
   12.7528   -4.8453   20.9645 C   0  0  0  0  0  0  0  0  0  0  0  0
    7.7837   -7.2240   16.6566 N   0  0  0  0  0  0  0  0  0  0  0  0
   10.6524   -3.9837   21.7308 C   0  0  0  0  0  0  0  0  0  0  0  0
    2.9333   -9.4490   16.1322 C   0  0  0  0  0  0  0  0  0  0  0  0
    0.9420  -12.2387   21.0817 C   0  0  0  0  0  0  0  0  0  0  0  0
   11.1740   -3.8214   23.0168 C   0  0  0  0  0  0  0  0  0  0  0  0
   10.8510   -3.9905   17.0897 C   0  0  0  0  0  0  0  0  0  0  0  0
   13.3210   -4.7195   22.2078 C   0  0  0  0  0  0  0  0  0  0  0  0
    5.1814   -9.1347   15.3091 C   0  0  0  0  0  0  0  0  0  0  0  0
   10.1253   -5.7846   19.1214 C   0  0  0  0  0  0  0  0  0  0  0  0
    1.5265  -10.9770   19.1021 C   0  0  0  0  0  0  0  0  0  0  0  0
   12.4914   -4.2135   23.1867 C   0  0  0  0  0  0  0  0  0  0  0  0
    9.9942   -5.0586   16.8466 C   0  0  0  0  0  0  0  0  0  0  0  0
    9.6496   -5.9320   17.8528 C   0  0  0  0  0  0  0  0  0  0  0  0
    4.2757   -9.6049   16.3192 C   0  0  0  0  0  0  0  0  0  0  0  0
   13.5656   -4.1979   25.2943 N   0  0  0  0  0  0  0  0  0  0  0  0
    8.8217   -7.0851   17.6547 C   0  0  0  0  0  0  0  0  0  0  0  0
    6.4568   -7.0733   14.9929 C   0  0  0  0  0  0  0  0  0  0  0  0
   11.4732   -4.4997   20.6944 C   0  0  0  0  0  0  0  0  0  0  0  0
    1.8715  -11.8415   20.1256 C   0  0  0  0  0  0  0  0  0  0  0  0
    6.1624   -8.2002   15.6351 C   0  0  0  0  0  0  0  0  0  0  0  0
    0.1832  -10.5591   19.0348 C   0  0  0  0  0  0  0  0  0  0  0  0
    2.0918   -9.8842   17.0098 N   0  0  0  0  0  0  0  0  0  0  0  0
   11.2288   -3.1759   16.2055 O   0  0  0  0  0  0  0  0  0  0  0  0
   11.2762   -3.8437   18.3897 N   0  0  0  0  0  0  0  0  0  0  0  0
   13.0833   -4.1753   24.4302 C   0  0  0  0  0  0  0  0  0  0  0  0
   -0.3471  -11.7646   21.0317 C   0  0  0  0  0  0  0  0  0  0  0  0
    4.6519  -10.2887   17.5070 C   0  0  0  0  0  0  0  0  0  0  0  0
   -0.7360  -10.9286   20.0132 C   0  0  0  0  0  0  0  0  0  0  0  0
    2.4677  -10.5265   18.1665 C   0  0  0  0  0  0  0  0  0  0  0  0
    6.9836   -8.2731   16.6423 C   0  0  0  0  0  0  0  0  0  0  0  0
   10.9700   -4.6902   19.4034 C   0  0  0  0  0  0  0  0  0  0  0  0
    3.8238  -10.7224   18.3631 N   0  0  0  0  0  0  0  0  0  0  0  0
    7.4384   -6.4463   15.6213 N   0  0  0  0  0  0  0  0  0  0  0  0
  1  8  4  0
  1 19  4  0
  2 17  1  0
  2 31  4  0
  2 34  4  0
  3  6  4  0
  3 19  4  0
  4 15  4  0
  4 23  4  0
  5 20  4  0
  5 27  4  0
  6 12  4  0
  7 13  4  0
  7 24  2  0
  7 25  4  0
  8 12  4  0
  9 15  1  0
  9 21  1  0
 10 14  4  0
 10 32  4  0
 11 20  4  0
 11 22  4  0
 11 30  1  0
 12 26  1  0
 13 14  4  0
 14 17  1  0
 15 28  4  0
 16 26  3  0
 18 21  4  0
 18 34  4  0
 19 32  1  0
 21 31  4  0
 22 29  4  0
 23 30  4  0
 25 32  4  0
 27 29  4  0
 28 33  4  0
 30 33  4  0
M  END
$$$$

 Created by Python create_sdf_string function

 34 47  0  0  0  0  0  0  0  0999 V2000
   12.7511   -4.8698   20.8126 C   0  0  0  0  0  0  0  0  0  0  0  0
    7.7651   -7.4106   16.7654 N   0  0  0  0  0  0  0  0  0  0  0  0
   10.6216   -3.9213   21.7314 C   0  0  0  0  0  0  0  0  0  0  0  0
    2.9278   -9.6260   16.2583 C   0  0  0  0  0  0  0  0  0  0  0  0
    0.9753  -12.3212   21.1771 C   0  0  0  0  0  0  0  0  0  0  0  0
   11.1266   -3.8430   23.1687 C   0  0  0  0  0  0  0  0  0  0  0  0
   10.8479   -3.9170   17.2684 C   0  0  0  0  0  0  0  0  0  0  0  0
   13.3209   -4.7930   22.2368 C   0  0  0  0  0  0  0  0  0  0  0  0
    5.2073   -9.0694   15.2194 C   0  0  0  0  0  0  0  0  0  0  0  0
    9.9642   -5.7725   19.1751 C   0  0  0  0  0  0  0  0  0  0  0  0
    1.4369  -10.9856   19.0287 C   0  0  0  0  0  0  0  0  0  0  0  0
   12.4241   -4.0812   23.3411 C   0  0  0  0  0  0  0  0  0  0  0  0
    9.7238   -6.0111   17.6169 C   0  0  0  0  0  0  0  0  0  0  0  0
    4.2282   -9.6055   16.3529 C   0  0  0  0  0  0  0  0  0  0  0  0
   13.7547   -4.0970   25.3540 N   0  0  0  0  0  0  0  0  0  0  0  0
    8.8839   -7.0624   17.6276 C   0  0  0  0  0  0  0  0  0  0  0  0
    6.6154   -7.2249   15.1477 C   0  0  0  0  0  0  0  0  0  0  0  0
   11.6359   -4.3926   20.7157 C   0  0  0  0  0  0  0  0  0  0  0  0
    1.8892  -11.8180   19.9823 C   0  0  0  0  0  0  0  0  0  0  0  0
    6.1982   -8.1994   15.5857 C   0  0  0  0  0  0  0  0  0  0  0  0
    0.2067  -10.6116   19.0784 C   0  0  0  0  0  0  0  0  0  0  0  0
    2.2208   -9.9728   17.0471 N   0  0  0  0  0  0  0  0  0  0  0  0
   11.3510   -3.1074   16.0911 O   0  0  0  0  0  0  0  0  0  0  0  0
   11.2443   -3.9585   18.4286 N   0  0  0  0  0  0  0  0  0  0  0  0
   13.0368   -4.1905   24.4253 C   0  0  0  0  0  0  0  0  0  0  0  0
   -0.4517  -11.8038   21.0696 C   0  0  0  0  0  0  0  0  0  0  0  0
    4.5879  -10.4172   17.5378 C   0  0  0  0  0  0  0  0  0  0  0  0
   -0.6037  -11.0155   19.9850 C   0  0  0  0  0  0  0  0  0  0  0  0
    2.5216  -10.5550   18.1966 C   0  0  0  0  0  0  0  0  0  0  0  0
    7.0800   -8.1989   16.6299 C   0  0  0  0  0  0  0  0  0  0  0  0
   10.9289   -4.7357   19.3020 C   0  0  0  0  0  0  0  0  0  0  0  0
    3.6688  -10.6516   18.4186 N   0  0  0  0  0  0  0  0  0  0  0  0
    7.3887   -6.4753   15.6112 N   0  0  0  0  0  0  0  0  0  0  0  0
    9.9806   -5.0596   16.9730 He  0  0  0  0  0  0  0  0  0  0  0  0
  1  8  4  0
  1 15  2  0
  1 18  4  0
  1 25  3  0
  1 29  2  0
  2 16  1  0
  2 30  4  0
  2 33  4  0
  3  6  4  0
  3 18  4  0
  4 14  4  0
  4 22  4  0
  5 19  4  0
  5 26  4  0
  6 11  3  0
  6 12  4  0
  6 14  2  0
  6 19  2  0
  7  8  2  0
  7 23  2  0
  7 24  4  0
  7 32  2  0
  8 12  4  0
  9 14  1  0
  9 20  1  0
  9 22  2  0
 10 13  4  0
 10 31  3  0
 11 13  1  0
 11 14  1  0
 11 17  4  0
 11 19  4  0
 11 21  4  0
 11 27  4  0
 12 25  1  0
 13 16  1  0
 14 27  4  0
 15 25  3  0
 17 20  4  0
 17 33  4  0
 18 31  1  0
 21 28  4  0
 21 33  4  0
 22 29  4  0
 26 28  4  0
 27 32  4  0
 29 32  4  0
M  END
$$$$

 Created by Python create_sdf_string function

 34 38  0  0  0  0  0  0  0  0999 V2000
   12.7773   -4.8602   20.9676 C   0  0  0  0  0  0  0  0  0  0  0  0
    7.8685   -7.2912   16.6793 N   0  0  0  0  0  0  0  0  0  0  0  0
   10.6897   -3.9701   21.7210 C   0  0  0  0  0  0  0  0  0  0  0  0
    2.9517   -9.5403   16.1822 C   0  0  0  0  0  0  0  0  0  0  0  0
    0.9448  -12.2669   21.1058 C   0  0  0  0  0  0  0  0  0  0  0  0
   11.2004   -3.8328   23.0085 C   0  0  0  0  0  0  0  0  0  0  0  0
   10.8796   -3.9874   17.1170 C   0  0  0  0  0  0  0  0  0  0  0  0
   13.3394   -4.7363   22.2464 C   0  0  0  0  0  0  0  0  0  0  0  0
    5.1712   -9.1406   15.3355 C   0  0  0  0  0  0  0  0  0  0  0  0
   10.1098   -5.7793   19.1277 C   0  0  0  0  0  0  0  0  0  0  0  0
    1.4960  -11.0038   19.1183 C   0  0  0  0  0  0  0  0  0  0  0  0
   12.5105   -4.2423   23.2036 C   0  0  0  0  0  0  0  0  0  0  0  0
   10.0296   -5.0434   16.8699 C   0  0  0  0  0  0  0  0  0  0  0  0
    9.6625   -5.9284   17.8418 C   0  0  0  0  0  0  0  0  0  0  0  0
    4.2796   -9.6500   16.3460 C   0  0  0  0  0  0  0  0  0  0  0  0
   13.6458   -4.0991   25.3363 N   0  0  0  0  0  0  0  0  0  0  0  0
    8.9442   -7.1381   17.5909 C   0  0  0  0  0  0  0  0  0  0  0  0
    6.5531   -7.1305   15.0309 C   0  0  0  0  0  0  0  0  0  0  0  0
   11.4747   -4.5035   20.6947 C   0  0  0  0  0  0  0  0  0  0  0  0
    1.8660  -11.8330   20.1315 C   0  0  0  0  0  0  0  0  0  0  0  0
    6.2080   -8.2282   15.6613 C   0  0  0  0  0  0  0  0  0  0  0  0
    0.1458  -10.6087   19.0455 C   0  0  0  0  0  0  0  0  0  0  0  0
    2.0683   -9.9373   17.0325 N   0  0  0  0  0  0  0  0  0  0  0  0
   11.2763   -3.1684   16.1928 O   0  0  0  0  0  0  0  0  0  0  0  0
   11.2971   -3.8142   18.4155 N   0  0  0  0  0  0  0  0  0  0  0  0
   13.1011   -4.1217   24.4510 C   0  0  0  0  0  0  0  0  0  0  0  0
   -0.3578  -11.8185   21.0413 C   0  0  0  0  0  0  0  0  0  0  0  0
    4.6178  -10.3107   17.5294 C   0  0  0  0  0  0  0  0  0  0  0  0
   -0.7576  -11.0009   20.0284 C   0  0  0  0  0  0  0  0  0  0  0  0
    2.4492  -10.5579   18.1751 C   0  0  0  0  0  0  0  0  0  0  0  0
    7.0290   -8.3321   16.6755 C   0  0  0  0  0  0  0  0  0  0  0  0
   10.9481   -4.6890   19.3925 C   0  0  0  0  0  0  0  0  0  0  0  0
    3.7907  -10.7557   18.3971 N   0  0  0  0  0  0  0  0  0  0  0  0
    7.5462   -6.4948   15.6636 N   0  0  0  0  0  0  0  0  0  0  0  0
  1  8  4  0
  1 19  4  0
  2 17  1  0
  2 31  4  0
  2 34  4  0
  3  6  4  0
  3 19  4  0
  4 15  4  0
  4 23  4  0
  5 20  4  0
  5 27  4  0
  6 12  4  0
  7 13  4  0
  7 24  2  0
  7 25  4  0
  8 12  4  0
  9 15  1  0
  9 21  1  0
 10 14  4  0
 10 32  4  0
 11 20  4  0
 11 22  4  0
 11 30  1  0
 12 26  1  0
 13 14  4  0
 14 17  1  0
 15 28  4  0
 16 26  3  0
 18 21  4  0
 18 34  4  0
 19 32  1  0
 21 31  4  0
 22 29  4  0
 23 30  4  0
 25 32  4  0
 27 29  4  0
 28 33  4  0
 30 33  4  0
M  END
$$$$

 Created by Python create_sdf_string function

 34 60  0  0  0  0  0  0  0  0999 V2000
    7.8552   -7.3628   16.6627 N   0  0  0  0  0  0  0  0  0  0  0  0
   10.8598   -3.9419   21.7312 C   0  0  0  0  0  0  0  0  0  0  0  0
    2.8795   -9.5751   16.1891 C   0  0  0  0  0  0  0  0  0  0  0  0
    0.9723  -12.2671   21.1961 C   0  0  0  0  0  0  0  0  0  0  0  0
   11.1354   -3.7991   22.9365 C   0  0  0  0  0  0  0  0  0  0  0  0
   10.9888   -4.1116   17.1875 C   0  0  0  0  0  0  0  0  0  0  0  0
   13.2383   -4.7876   22.2893 C   0  0  0  0  0  0  0  0  0  0  0  0
    5.0090   -9.1474   15.4246 C   0  0  0  0  0  0  0  0  0  0  0  0
   10.0513   -5.6787   19.0882 C   0  0  0  0  0  0  0  0  0  0  0  0
    1.5014  -11.0181   19.2346 C   0  0  0  0  0  0  0  0  0  0  0  0
   12.5782   -4.2208   23.1745 C   0  0  0  0  0  0  0  0  0  0  0  0
   10.0785   -5.2039   16.7317 C   0  0  0  0  0  0  0  0  0  0  0  0
    9.8353   -5.9759   17.8796 C   0  0  0  0  0  0  0  0  0  0  0  0
    4.2198   -9.7746   16.1813 N   0  0  0  0  0  0  0  0  0  0  0  0
   13.6230   -4.1538   25.4646 N   0  0  0  0  0  0  0  0  0  0  0  0
    8.7699   -7.2724   17.6363 C   0  0  0  0  0  0  0  0  0  0  0  0
    6.7924   -7.1040   14.9050 F   0  0  0  0  0  0  0  0  0  0  0  0
   11.5392   -4.5896   20.8181 C   0  0  0  0  0  0  0  0  0  0  0  0
    1.9305  -11.8253   20.1585 C   0  0  0  0  0  0  0  0  0  0  0  0
    6.1818   -8.1898   15.6601 C   0  0  0  0  0  0  0  0  0  0  0  0
    0.1297  -10.6492   18.9828 C   0  0  0  0  0  0  0  0  0  0  0  0
    2.1159   -9.9538   16.9755 N   0  0  0  0  0  0  0  0  0  0  0  0
   11.3013   -3.3387   16.2765 O   0  0  0  0  0  0  0  0  0  0  0  0
   11.3158   -3.8520   18.3221 N   0  0  0  0  0  0  0  0  0  0  0  0
   13.1000   -4.1793   24.4456 C   0  0  0  0  0  0  0  0  0  0  0  0
   -0.1509  -11.8777   21.1560 C   0  0  0  0  0  0  0  0  0  0  0  0
    4.6184  -10.3158   17.4435 C   0  0  0  0  0  0  0  0  0  0  0  0
   -0.7553  -10.9772   20.0906 C   0  0  0  0  0  0  0  0  0  0  0  0
    2.4549  -10.6184   18.1073 C   0  0  0  0  0  0  0  0  0  0  0  0
    6.8751   -8.3157   16.6499 C   0  0  0  0  0  0  0  0  0  0  0  0
   10.9154   -4.6604   19.5613 C   0  0  0  0  0  0  0  0  0  0  0  0
    3.7441  -10.8093   18.3755 N   0  0  0  0  0  0  0  0  0  0  0  0
    7.7126   -6.3603   15.6939 N   0  0  0  0  0  0  0  0  0  0  0  0
   12.7183   -4.8570   20.9223 He  0  0  0  0  0  0  0  0  0  0  0  0
  1  8  2  0
  1 16  1  0
  1 29  1  0
  1 30  1  0
  1 33  4  0
  2  5  3  0
  2 18  4  0
  2 19  2  0
  3 14  4  0
  3 22  4  0
  3 30  3  0
  4 19  4  0
  4 26  4  0
  5 11  4  0
  6 12  4  0
  6 14  1  0
  6 23  2  0
  6 24  4  0
  7 11  4  0
  7 17  1  0
  7 18  2  0
  8 14  1  0
  8 20  1  0
  9 13  4  0
  9 27  4  0
  9 31  4  0
 10 19  4  0
 10 21  4  0
 10 24  1  0
 10 29  1  0
 11 15  4  0
 11 22  1  0
 11 25  1  0
 11 30  4  0
 12 13  4  0
 12 14  2  0
 12 15  3  0
 12 33  4  0
 13 15  3  0
 13 16  4  0
 14 21  1  0
 14 27  4  0
 15 25  3  0
 17 20  4  0
 17 30  3  0
 17 33  4  0
 18 31  1  0
 19 30  2  0
 20 30  4  0
 21 28  4  0
 21 32  1  0
 22 29  4  0
 24 26  2  0
 24 31  4  0
 24 32  3  0
 26 28  4  0
 27 30  2  0
 27 32  4  0
 29 32  4  0
 30 31  1  0
M  END
$$$$

 Created by Python create_sdf_string function

 34 38  0  0  0  0  0  0  0  0999 V2000
   12.7781   -4.9379   20.9620 C   0  0  0  0  0  0  0  0  0  0  0  0
    7.8643   -7.3252   16.6907 N   0  0  0  0  0  0  0  0  0  0  0  0
   10.7311   -3.9546   21.7175 C   0  0  0  0  0  0  0  0  0  0  0  0
    2.9360   -9.5702   16.1549 C   0  0  0  0  0  0  0  0  0  0  0  0
    1.0343  -12.2291   21.1828 C   0  0  0  0  0  0  0  0  0  0  0  0
   11.2700   -3.8092   22.9789 C   0  0  0  0  0  0  0  0  0  0  0  0
   10.9409   -4.0924   17.1279 C   0  0  0  0  0  0  0  0  0  0  0  0
   13.3428   -4.8124   22.2202 C   0  0  0  0  0  0  0  0  0  0  0  0
    5.0932   -9.1085   15.3154 C   0  0  0  0  0  0  0  0  0  0  0  0
   10.1021   -5.7829   19.1486 C   0  0  0  0  0  0  0  0  0  0  0  0
    1.5166  -11.0356   19.1365 C   0  0  0  0  0  0  0  0  0  0  0  0
   12.5486   -4.2599   23.1841 C   0  0  0  0  0  0  0  0  0  0  0  0
   10.1246   -5.1794   16.8366 C   0  0  0  0  0  0  0  0  0  0  0  0
    9.6961   -5.9888   17.8553 C   0  0  0  0  0  0  0  0  0  0  0  0
    4.2333   -9.6462   16.3232 N   0  0  0  0  0  0  0  0  0  0  0  0
   13.5518   -4.1398   25.3918 N   0  0  0  0  0  0  0  0  0  0  0  0
    8.8757   -7.1863   17.6804 C   0  0  0  0  0  0  0  0  0  0  0  0
    6.6788   -7.1390   14.9819 C   0  0  0  0  0  0  0  0  0  0  0  0
   11.5043   -4.5252   20.7027 C   0  0  0  0  0  0  0  0  0  0  0  0
    1.9256  -11.8310   20.1945 C   0  0  0  0  0  0  0  0  0  0  0  0
    6.1903   -8.2124   15.6338 C   0  0  0  0  0  0  0  0  0  0  0  0
    0.1530  -10.6518   19.0836 C   0  0  0  0  0  0  0  0  0  0  0  0
    2.0604   -9.9677   17.0030 N   0  0  0  0  0  0  0  0  0  0  0  0
   11.3430   -3.3068   16.2359 O   0  0  0  0  0  0  0  0  0  0  0  0
   11.3376   -3.8940   18.4055 N   0  0  0  0  0  0  0  0  0  0  0  0
   13.1008   -4.1707   24.4464 C   0  0  0  0  0  0  0  0  0  0  0  0
   -0.2756  -11.8217   21.1290 C   0  0  0  0  0  0  0  0  0  0  0  0
    4.6013  -10.3271   17.4314 C   0  0  0  0  0  0  0  0  0  0  0  0
   -0.7328  -11.0263   20.0902 C   0  0  0  0  0  0  0  0  0  0  0  0
    2.4626  -10.5932   18.1500 C   0  0  0  0  0  0  0  0  0  0  0  0
    6.9443   -8.3198   16.6891 C   0  0  0  0  0  0  0  0  0  0  0  0
   11.0033   -4.7094   19.4260 C   0  0  0  0  0  0  0  0  0  0  0  0
    3.8155  -10.7935   18.3240 N   0  0  0  0  0  0  0  0  0  0  0  0
    7.6814   -6.5556   15.6168 N   0  0  0  0  0  0  0  0  0  0  0  0
  1  8  4  0
  1 19  4  0
  2 17  1  0
  2 31  4  0
  2 34  4  0
  3  6  4  0
  3 19  4  0
  4 15  4  0
  4 23  4  0
  5 20  4  0
  5 27  4  0
  6 12  4  0
  7 13  4  0
  7 24  2  0
  7 25  4  0
  8 12  4  0
  9 15  1  0
  9 21  1  0
 10 14  4  0
 10 32  4  0
 11 20  4  0
 11 22  4  0
 11 30  1  0
 12 26  1  0
 13 14  4  0
 14 17  1  0
 15 28  4  0
 16 26  3  0
 18 21  4  0
 18 34  4  0
 19 32  1  0
 21 31  4  0
 22 29  4  0
 23 30  4  0
 25 32  4  0
 27 29  4  0
 28 33  4  0
 30 33  4  0
M  END
$$$$

 Created by Python create_sdf_string function

 34 50  0  0  0  0  0  0  0  0999 V2000
   12.7226   -4.9457   20.9835 C   0  0  0  0  0  0  0  0  0  0  0  0
    7.8616   -7.3353   16.7736 N   0  0  0  0  0  0  0  0  0  0  0  0
   10.7823   -3.7848   21.7523 C   0  0  0  0  0  0  0  0  0  0  0  0
    2.9928   -9.6465   16.2425 C   0  0  0  0  0  0  0  0  0  0  0  0
    1.0703  -12.2798   21.3123 C   0  0  0  0  0  0  0  0  0  0  0  0
   11.2953   -3.8548   22.9356 C   0  0  0  0  0  0  0  0  0  0  0  0
   11.0101   -4.1418   17.1650 C   0  0  0  0  0  0  0  0  0  0  0  0
    5.1864   -9.0766   15.4337 C   0  0  0  0  0  0  0  0  0  0  0  0
   10.0631   -5.6889   19.2270 C   0  0  0  0  0  0  0  0  0  0  0  0
    1.5177  -11.0535   19.1583 C   0  0  0  0  0  0  0  0  0  0  0  0
   12.4856   -4.2941   23.0735 C   0  0  0  0  0  0  0  0  0  0  0  0
   10.2555   -5.2710   16.8941 C   0  0  0  0  0  0  0  0  0  0  0  0
    9.8058   -5.8883   17.8867 C   0  0  0  0  0  0  0  0  0  0  0  0
    4.1393   -9.6443   16.3153 N   0  0  0  0  0  0  0  0  0  0  0  0
   13.5102   -3.9947   25.6637 N   0  0  0  0  0  0  0  0  0  0  0  0
    8.9636   -7.2048   17.6670 C   0  0  0  0  0  0  0  0  0  0  0  0
    6.7347   -7.2416   14.9551 C   0  0  0  0  0  0  0  0  0  0  0  0
   11.4862   -4.4859   20.6011 C   0  0  0  0  0  0  0  0  0  0  0  0
    2.0412  -11.6838   20.1784 C   0  0  0  0  0  0  0  0  0  0  0  0
    6.1200   -8.2329   15.6511 C   0  0  0  0  0  0  0  0  0  0  0  0
    0.1559  -10.6220   19.0727 C   0  0  0  0  0  0  0  0  0  0  0  0
    2.1447   -9.8853   16.8563 N   0  0  0  0  0  0  0  0  0  0  0  0
   11.2265   -3.3655   16.2273 O   0  0  0  0  0  0  0  0  0  0  0  0
   11.2808   -3.9732   18.4634 N   0  0  0  0  0  0  0  0  0  0  0  0
   12.9754   -4.1054   24.4097 C   0  0  0  0  0  0  0  0  0  0  0  0
   -0.2449  -11.9179   21.0961 C   0  0  0  0  0  0  0  0  0  0  0  0
    4.6030  -10.3160   17.3395 C   0  0  0  0  0  0  0  0  0  0  0  0
   -0.7938  -11.0172   20.0328 C   0  0  0  0  0  0  0  0  0  0  0  0
    2.4987  -10.6241   18.2061 C   0  0  0  0  0  0  0  0  0  0  0  0
    7.0935   -8.1696   16.6971 C   0  0  0  0  0  0  0  0  0  0  0  0
   11.1274   -4.7454   19.5212 C   0  0  0  0  0  0  0  0  0  0  0  0
    3.8103  -10.8113   18.4150 C   0  0  0  0  0  0  0  0  0  0  0  0
    7.6254   -6.4907   15.7128 N   0  0  0  0  0  0  0  0  0  0  0  0
   13.3544   -4.7426   22.1777 He  0  0  0  0  0  0  0  0  0  0  0  0
  1  4  3  0
  1 18  4  0
  2  6  2  0
  2 16  1  0
  2 32  1  0
  2 33  4  0
  3  6  4  0
  3 18  4  0
  3 29  1  0
  4  8  2  0
  4 14  4  0
  4 22  4  0
  4 33  2  0
  5 19  4  0
  5 26  4  0
  5 31  4  0
  6 11  4  0
  7 12  4  0
  7 23  2  0
  7 24  4  0
  8 14  1  0
  8 16  3  0
  8 20  1  0
  9 13  4  0
  9 20  2  0
  9 21  4  0
  9 31  4  0
 10 17  3  0
 10 19  4  0
 10 21  4  0
 10 29  1  0
 11 24  1  0
 11 25  1  0
 12 13  4  0
 12 24  1  0
 13 16  1  0
 14 27  4  0
 15 25  3  0
 17 20  4  0
 17 33  4  0
 18 31  1  0
 20 30  1  0
 21 28  4  0
 22 29  4  0
 24 25  4  0
 24 31  4  0
 25 33  2  0
 26 28  4  0
 27 32  4  0
 29 32  4  0
M  END
$$$$

 Created by Python create_sdf_string function

 34 38  0  0  0  0  0  0  0  0999 V2000
   12.8136   -4.9384   20.9710 C   0  0  0  0  0  0  0  0  0  0  0  0
    7.9084   -7.3141   16.7137 N   0  0  0  0  0  0  0  0  0  0  0  0
   10.7808   -3.9028   21.6890 C   0  0  0  0  0  0  0  0  0  0  0  0
    2.9575   -9.5423   16.1347 C   0  0  0  0  0  0  0  0  0  0  0  0
    1.0311  -12.2093   21.2395 C   0  0  0  0  0  0  0  0  0  0  0  0
   11.2955   -3.7650   22.9663 C   0  0  0  0  0  0  0  0  0  0  0  0
   10.9730   -4.1195   17.1402 C   0  0  0  0  0  0  0  0  0  0  0  0
   13.3627   -4.8253   22.2324 C   0  0  0  0  0  0  0  0  0  0  0  0
    5.1538   -9.0916   15.3633 C   0  0  0  0  0  0  0  0  0  0  0  0
   10.1447   -5.7814   19.2030 C   0  0  0  0  0  0  0  0  0  0  0  0
    1.5435  -11.0129   19.1639 C   0  0  0  0  0  0  0  0  0  0  0  0
   12.5504   -4.2406   23.1809 C   0  0  0  0  0  0  0  0  0  0  0  0
   10.1653   -5.2103   16.9060 C   0  0  0  0  0  0  0  0  0  0  0  0
    9.7592   -6.0136   17.9222 C   0  0  0  0  0  0  0  0  0  0  0  0
    4.2699   -9.6512   16.3227 N   0  0  0  0  0  0  0  0  0  0  0  0
   13.4375   -4.0190   25.4902 N   0  0  0  0  0  0  0  0  0  0  0  0
    8.9575   -7.1980   17.6994 C   0  0  0  0  0  0  0  0  0  0  0  0
    6.6763   -7.1607   14.9850 C   0  0  0  0  0  0  0  0  0  0  0  0
   11.5470   -4.5120   20.6878 C   0  0  0  0  0  0  0  0  0  0  0  0
    1.9446  -11.7822   20.2544 C   0  0  0  0  0  0  0  0  0  0  0  0
    6.2195   -8.2213   15.6570 C   0  0  0  0  0  0  0  0  0  0  0  0
    0.1714  -10.6762   19.0817 C   0  0  0  0  0  0  0  0  0  0  0  0
    2.1012   -9.9559   16.9994 N   0  0  0  0  0  0  0  0  0  0  0  0
   11.3298   -3.3361   16.2282 O   0  0  0  0  0  0  0  0  0  0  0  0
   11.3800   -3.9183   18.4097 N   0  0  0  0  0  0  0  0  0  0  0  0
   13.0604   -4.1336   24.4778 C   0  0  0  0  0  0  0  0  0  0  0  0
   -0.2929  -11.8540   21.1092 C   0  0  0  0  0  0  0  0  0  0  0  0
    4.6849  -10.3260   17.4314 C   0  0  0  0  0  0  0  0  0  0  0  0
   -0.7356  -11.0852   20.0600 C   0  0  0  0  0  0  0  0  0  0  0  0
    2.4802  -10.5802   18.1621 C   0  0  0  0  0  0  0  0  0  0  0  0
    7.0223   -8.3058   16.7484 C   0  0  0  0  0  0  0  0  0  0  0  0
   11.0247   -4.7132   19.4431 C   0  0  0  0  0  0  0  0  0  0  0  0
    3.8649  -10.7880   18.3267 C   0  0  0  0  0  0  0  0  0  0  0  0
    7.6783   -6.5695   15.6432 N   0  0  0  0  0  0  0  0  0  0  0  0
  1  8  4  0
  1 19  4  0
  2 17  1  0
  2 31  4  0
  2 34  4  0
  3  6  4  0
  3 19  4  0
  4 15  4  0
  4 23  4  0
  5 20  4  0
  5 27  4  0
  6 12  4  0
  7 13  4  0
  7 24  2  0
  7 25  4  0
  8 12  4  0
  9 15  1  0
  9 21  1  0
 10 14  4  0
 10 32  4  0
 11 20  4  0
 11 22  4  0
 11 30  1  0
 12 26  1  0
 13 14  4  0
 14 17  1  0
 15 28  4  0
 16 26  3  0
 18 21  4  0
 18 34  4  0
 19 32  1  0
 21 31  4  0
 22 29  4  0
 23 30  4  0
 25 32  4  0
 27 29  4  0
 28 33  4  0
 30 33  4  0
M  END
$$$$

 Created by Python create_sdf_string function

 34 37  0  0  0  0  0  0  0  0999 V2000
   12.8889   -4.8732   21.0398 C   0  0  0  0  0  0  0  0  0  0  0  0
   10.7756   -3.8868   21.5851 C   0  0  0  0  0  0  0  0  0  0  0  0
    2.9711   -9.5553   16.1909 C   0  0  0  0  0  0  0  0  0  0  0  0
    1.1034  -12.3351   21.2849 C   0  0  0  0  0  0  0  0  0  0  0  0
   11.3463   -3.7038   22.9957 C   0  0  0  0  0  0  0  0  0  0  0  0
   10.9165   -4.0112   17.1482 C   0  0  0  0  0  0  0  0  0  0  0  0
   13.3834   -4.7397   22.3821 C   0  0  0  0  0  0  0  0  0  0  0  0
    5.1207   -9.0848   15.3849 C   0  0  0  0  0  0  0  0  0  0  0  0
   10.2218   -5.6756   19.2773 C   0  0  0  0  0  0  0  0  0  0  0  0
    1.5282  -10.9826   19.2581 C   0  0  0  0  0  0  0  0  0  0  0  0
   12.4957   -4.4025   23.1615 C   0  0  0  0  0  0  0  0  0  0  0  0
   10.1594   -5.1145   17.0347 C   0  0  0  0  0  0  0  0  0  0  0  0
    9.5002   -6.1552   17.8187 C   0  0  0  0  0  0  0  0  0  0  0  0
    4.2929   -9.5973   16.4371 N   0  0  0  0  0  0  0  0  0  0  0  0
   13.5322   -4.0796   25.4833 N   0  0  0  0  0  0  0  0  0  0  0  0
    9.0858   -7.1573   17.6028 C   0  0  0  0  0  0  0  0  0  0  0  0
    6.7158   -6.9887   14.9786 C   0  0  0  0  0  0  0  0  0  0  0  0
   11.6352   -4.5711   20.7176 C   0  0  0  0  0  0  0  0  0  0  0  0
    1.9848  -11.7971   20.2685 F   0  0  0  0  0  0  0  0  0  0  0  0
    6.1777   -8.1853   15.7256 C   0  0  0  0  0  0  0  0  0  0  0  0
    0.1905  -10.6743   19.0283 C   0  0  0  0  0  0  0  0  0  0  0  0
    2.0817  -10.1273   16.9637 N   0  0  0  0  0  0  0  0  0  0  0  0
   11.2919   -3.3002   16.1405 O   0  0  0  0  0  0  0  0  0  0  0  0
   11.2883   -3.7309   18.4068 N   0  0  0  0  0  0  0  0  0  0  0  0
   13.0848   -4.0128   24.4533 C   0  0  0  0  0  0  0  0  0  0  0  0
   -0.2965  -11.7622   21.1860 C   0  0  0  0  0  0  0  0  0  0  0  0
   -0.6866  -11.0997   20.0580 C   0  0  0  0  0  0  0  0  0  0  0  0
    2.5240  -10.5915   18.0556 C   0  0  0  0  0  0  0  0  0  0  0  0
    6.9183   -8.1476   16.6802 C   0  0  0  0  0  0  0  0  0  0  0  0
   11.0472   -4.8504   19.2771 C   0  0  0  0  0  0  0  0  0  0  0  0
    3.7682  -10.8135   18.3460 C   0  0  0  0  0  0  0  0  0  0  0  0
    7.7154   -6.5737   15.5554 N   0  0  0  0  0  0  0  0  0  0  0  0
    7.9389   -7.3872   16.7047 He  0  0  0  0  0  0  0  0  0  0  0  0
    4.5920  -10.2803   17.4413 He  0  0  0  0  0  0  0  0  0  0  0  0
  1  7  4  0
  1 18  4  0
  2  5  4  0
  2 18  4  0
  3 14  4  0
  3 22  4  0
  3 23  3  0
  4 19  4  0
  4 26  4  0
  5 11  4  0
  6  7  1  0
  6 12  4  0
  6 23  2  0
  6 24  4  0
  7 11  4  0
  7 23  4  0
  8 14  1  0
  8 20  1  0
  9 13  4  0
  9 30  4  0
 10 19  4  0
 10 21  4  0
 10 32  3  0
 11 28  1  0
 12 13  4  0
 13 16  1  0
 15 25  1  0
 17 19  2  0
 17 20  4  0
 17 32  4  0
 18 30  1  0
 20 29  4  0
 21 27  4  0
 22 28  4  0
 24 30  4  0
 26 27  4  0
 28 31  2  0
M  END
$$$$

 Created by Python create_sdf_string function

 34 38  0  0  0  0  0  0  0  0999 V2000
   12.8973   -4.9526   21.0224 C   0  0  0  0  0  0  0  0  0  0  0  0
    7.9322   -7.3344   16.6794 N   0  0  0  0  0  0  0  0  0  0  0  0
   10.8223   -3.9108   21.6475 C   0  0  0  0  0  0  0  0  0  0  0  0
    2.9639   -9.5656   16.1656 C   0  0  0  0  0  0  0  0  0  0  0  0
    1.0397  -12.2207   21.2708 C   0  0  0  0  0  0  0  0  0  0  0  0
   11.2920   -3.7750   22.9384 C   0  0  0  0  0  0  0  0  0  0  0  0
   10.9190   -4.0347   17.1405 C   0  0  0  0  0  0  0  0  0  0  0  0
   13.4019   -4.8313   22.2942 C   0  0  0  0  0  0  0  0  0  0  0  0
    5.1227   -9.0422   15.4063 C   0  0  0  0  0  0  0  0  0  0  0  0
   10.2165   -5.8120   19.1712 C   0  0  0  0  0  0  0  0  0  0  0  0
    1.5343  -11.0602   19.1841 C   0  0  0  0  0  0  0  0  0  0  0  0
   12.5694   -4.2129   23.2139 C   0  0  0  0  0  0  0  0  0  0  0  0
   10.0869   -5.1011   16.9111 C   0  0  0  0  0  0  0  0  0  0  0  0
    9.7405   -6.0132   17.8747 C   0  0  0  0  0  0  0  0  0  0  0  0
    4.2629   -9.6303   16.3830 N   0  0  0  0  0  0  0  0  0  0  0  0
   13.4859   -4.1131   25.3649 N   0  0  0  0  0  0  0  0  0  0  0  0
    8.9963   -7.1929   17.6299 C   0  0  0  0  0  0  0  0  0  0  0  0
    6.6655   -7.1057   14.9758 C   0  0  0  0  0  0  0  0  0  0  0  0
   11.6207   -4.5172   20.6874 C   0  0  0  0  0  0  0  0  0  0  0  0
    1.9239  -11.7991   20.2850 C   0  0  0  0  0  0  0  0  0  0  0  0
    6.1949   -8.1455   15.6894 C   0  0  0  0  0  0  0  0  0  0  0  0
    0.1739  -10.6986   19.0916 C   0  0  0  0  0  0  0  0  0  0  0  0
    2.0934  -10.0160   17.0168 N   0  0  0  0  0  0  0  0  0  0  0  0
   11.2889   -3.2565   16.2133 O   0  0  0  0  0  0  0  0  0  0  0  0
   11.3758   -3.8408   18.4084 N   0  0  0  0  0  0  0  0  0  0  0  0
   13.0435   -4.0493   24.4538 C   0  0  0  0  0  0  0  0  0  0  0  0
   -0.2878  -11.8246   21.1720 C   0  0  0  0  0  0  0  0  0  0  0  0
    4.6762  -10.2711   17.4565 N   0  0  0  0  0  0  0  0  0  0  0  0
   -0.7255  -11.0743   20.0983 C   0  0  0  0  0  0  0  0  0  0  0  0
    2.4891  -10.6238   18.1714 C   0  0  0  0  0  0  0  0  0  0  0  0
    6.9830   -8.2576   16.7301 C   0  0  0  0  0  0  0  0  0  0  0  0
   11.0713   -4.7005   19.4128 C   0  0  0  0  0  0  0  0  0  0  0  0
    3.8614  -10.7721   18.3198 C   0  0  0  0  0  0  0  0  0  0  0  0
    7.7260   -6.6001   15.5786 N   0  0  0  0  0  0  0  0  0  0  0  0
  1  8  4  0
  1 19  4  0
  2 17  1  0
  2 31  4  0
  2 34  4  0
  3  6  4  0
  3 19  4  0
  4 15  4  0
  4 23  4  0
  5 20  4  0
  5 27  4  0
  6 12  4  0
  7 13  4  0
  7 24  2  0
  7 25  4  0
  8 12  4  0
  9 15  1  0
  9 21  1  0
 10 14  4  0
 10 32  4  0
 11 20  4  0
 11 22  4  0
 11 30  1  0
 12 26  1  0
 13 14  4  0
 14 17  1  0
 15 28  4  0
 16 26  3  0
 18 21  4  0
 18 34  4  0
 19 32  1  0
 21 31  4  0
 22 29  4  0
 23 30  4  0
 25 32  4  0
 27 29  4  0
 28 33  4  0
 30 33  4  0
M  END
$$$$

 Created by Python create_sdf_string function

 34 45  0  0  0  0  0  0  0  0999 V2000
   13.0087   -5.0184   20.9989 C   0  0  0  0  0  0  0  0  0  0  0  0
    7.9015   -7.4312   16.6288 N   0  0  0  0  0  0  0  0  0  0  0  0
   10.7854   -3.9806   21.6117 C   0  0  0  0  0  0  0  0  0  0  0  0
    2.9212   -9.5481   16.2077 C   0  0  0  0  0  0  0  0  0  0  0  0
    1.0120  -12.2404   21.2423 C   0  0  0  0  0  0  0  0  0  0  0  0
   11.3332   -3.8289   22.9847 C   0  0  0  0  0  0  0  0  0  0  0  0
   10.9182   -4.0629   17.1420 C   0  0  0  0  0  0  0  0  0  0  0  0
   13.4823   -4.8364   22.2436 C   0  0  0  0  0  0  0  0  0  0  0  0
    4.9503   -8.9091   15.3373 C   0  0  0  0  0  0  0  0  0  0  0  0
   10.4084   -5.8007   19.2328 C   0  0  0  0  0  0  0  0  0  0  0  0
    1.5159  -11.1280   19.1993 C   0  0  0  0  0  0  0  0  0  0  0  0
   12.5912   -4.1549   23.2015 S   0  0  0  0  0  0  0  0  0  0  0  0
   10.1201   -5.1505   17.0347 C   0  0  0  0  0  0  0  0  0  0  0  0
    9.7662   -5.9270   18.0235 C   0  0  0  0  0  0  0  0  0  0  0  0
    4.3433   -9.6159   16.3004 N   0  0  0  0  0  0  0  0  0  0  0  0
   13.5353   -4.0576   25.2579 N   0  0  0  0  0  0  0  0  0  0  0  0
    8.9281   -7.2518   17.5810 C   0  0  0  0  0  0  0  0  0  0  0  0
    6.7060   -7.0519   14.9540 C   0  0  0  0  0  0  0  0  0  0  0  0
   11.6479   -4.6305   20.6640 C   0  0  0  0  0  0  0  0  0  0  0  0
    1.9550  -11.7643   20.1927 C   0  0  0  0  0  0  0  0  0  0  0  0
    6.2047   -8.0996   15.7323 C   0  0  0  0  0  0  0  0  0  0  0  0
    0.2601  -10.7807   19.0175 C   0  0  0  0  0  0  0  0  0  0  0  0
    2.0413   -9.9186   16.9142 N   0  0  0  0  0  0  0  0  0  0  0  0
   11.3110   -3.1834   16.1971 O   0  0  0  0  0  0  0  0  0  0  0  0
   11.4118   -3.8226   18.3808 N   0  0  0  0  0  0  0  0  0  0  0  0
   -0.3550  -11.8368   21.1879 C   0  0  0  0  0  0  0  0  0  0  0  0
    4.6632  -10.2195   17.4476 N   0  0  0  0  0  0  0  0  0  0  0  0
   -0.6522  -11.0253   20.0224 C   0  0  0  0  0  0  0  0  0  0  0  0
    2.4045  -10.6914   18.1274 C   0  0  0  0  0  0  0  0  0  0  0  0
    7.0714   -8.2337   16.6327 C   0  0  0  0  0  0  0  0  0  0  0  0
   10.9960   -4.8069   19.3754 C   0  0  0  0  0  0  0  0  0  0  0  0
    3.8464  -10.7556   18.2468 C   0  0  0  0  0  0  0  0  0  0  0  0
    7.7886   -6.5385   15.6270 N   0  0  0  0  0  0  0  0  0  0  0  0
   13.0979   -4.0047   24.4135 He  0  0  0  0  0  0  0  0  0  0  0  0
  1  8  4  0
  1 10  4  0
  1 19  4  0
  2 17  1  0
  2 28  2  0
  2 30  4  0
  2 33  4  0
  3  6  4  0
  3 19  4  0
  3 25  3  0
  4 15  4  0
  4 23  4  0
  5 20  4  0
  5 26  4  0
  6 12  4  0
  7 13  4  0
  7 24  2  0
  7 25  4  0
  8 12  4  0
  9 15  1  0
  9 21  1  0
 10 14  4  0
 10 20  3  0
 10 31  4  0
 11 20  4  0
 11 22  3  0
 11 29  1  0
 12 17  2  0
 13 14  4  0
 14 17  1  0
 14 29  2  0
 15 26  3  0
 15 27  4  0
 18 21  4  0
 18 33  4  0
 19 21  1  0
 19 31  1  0
 21 30  4  0
 22 28  4  0
 22 29  1  0
 23 29  4  0
 25 31  4  0
 26 28  4  0
 27 32  4  0
 29 32  4  0
M  END
$$$$

 Created by Python create_sdf_string function

 34 38  0  0  0  0  0  0  0  0999 V2000
   12.9355   -4.9973   21.0109 C   0  0  0  0  0  0  0  0  0  0  0  0
    7.9460   -7.3563   16.6457 N   0  0  0  0  0  0  0  0  0  0  0  0
   10.8404   -3.9959   21.6620 C   0  0  0  0  0  0  0  0  0  0  0  0
    2.9188   -9.5234   16.1585 C   0  0  0  0  0  0  0  0  0  0  0  0
    1.0176  -12.2080   21.2490 C   0  0  0  0  0  0  0  0  0  0  0  0
   11.3347   -3.8128   22.9214 C   0  0  0  0  0  0  0  0  0  0  0  0
   10.9284   -4.0479   17.1708 C   0  0  0  0  0  0  0  0  0  0  0  0
   13.4731   -4.8260   22.2415 C   0  0  0  0  0  0  0  0  0  0  0  0
    5.0635   -8.9139   15.3629 C   0  0  0  0  0  0  0  0  0  0  0  0
   10.3117   -5.8509   19.1890 C   0  0  0  0  0  0  0  0  0  0  0  0
    1.5302  -11.0821   19.1598 C   0  0  0  0  0  0  0  0  0  0  0  0
   12.6311   -4.2297   23.1665 C   0  0  0  0  0  0  0  0  0  0  0  0
   10.0929   -5.1238   16.9487 C   0  0  0  0  0  0  0  0  0  0  0  0
    9.8063   -6.0152   17.9352 C   0  0  0  0  0  0  0  0  0  0  0  0
    4.2275   -9.5686   16.3480 N   0  0  0  0  0  0  0  0  0  0  0  0
   13.5105   -4.0124   25.2679 N   0  0  0  0  0  0  0  0  0  0  0  0
    8.9834   -7.2071   17.6574 C   0  0  0  0  0  0  0  0  0  0  0  0
    6.7046   -7.0656   14.9882 C   0  0  0  0  0  0  0  0  0  0  0  0
   11.6596   -4.5792   20.6981 C   0  0  0  0  0  0  0  0  0  0  0  0
    1.9166  -11.8406   20.2682 C   0  0  0  0  0  0  0  0  0  0  0  0
    6.2074   -8.1166   15.6575 C   0  0  0  0  0  0  0  0  0  0  0  0
    0.1696  -10.7527   19.0705 C   0  0  0  0  0  0  0  0  0  0  0  0
    2.0598   -9.9932   17.0017 N   0  0  0  0  0  0  0  0  0  0  0  0
   11.2826   -3.2248   16.2437 O   0  0  0  0  0  0  0  0  0  0  0  0
   11.4180   -3.8730   18.4231 N   0  0  0  0  0  0  0  0  0  0  0  0
   13.1275   -4.0746   24.3910 C   0  0  0  0  0  0  0  0  0  0  0  0
   -0.3111  -11.8198   21.1507 C   0  0  0  0  0  0  0  0  0  0  0  0
    4.6772  -10.2264   17.4134 N   0  0  0  0  0  0  0  0  0  0  0  0
   -0.7140  -11.0844   20.0554 C   0  0  0  0  0  0  0  0  0  0  0  0
    2.4763  -10.6178   18.1482 C   0  0  0  0  0  0  0  0  0  0  0  0
    7.0300   -8.3022   16.6794 C   0  0  0  0  0  0  0  0  0  0  0  0
   11.1449   -4.7584   19.4321 C   0  0  0  0  0  0  0  0  0  0  0  0
    3.8580  -10.7555   18.2624 C   0  0  0  0  0  0  0  0  0  0  0  0
    7.7671   -6.5813   15.5959 N   0  0  0  0  0  0  0  0  0  0  0  0
  1  8  4  0
  1 19  4  0
  2 17  1  0
  2 31  4  0
  2 34  4  0
  3  6  4  0
  3 19  4  0
  4 15  4  0
  4 23  4  0
  5 20  4  0
  5 27  4  0
  6 12  4  0
  7 13  4  0
  7 24  2  0
  7 25  4  0
  8 12  4  0
  9 15  1  0
  9 21  1  0
 10 14  4  0
 10 32  4  0
 11 20  4  0
 11 22  4  0
 11 30  1  0
 12 26  1  0
 13 14  4  0
 14 17  1  0
 15 28  4  0
 16 26  3  0
 18 21  4  0
 18 34  4  0
 19 32  1  0
 21 31  4  0
 22 29  4  0
 23 30  4  0
 25 32  4  0
 27 29  4  0
 28 33  4  0
 30 33  4  0
M  END
$$$$

 Created by Python create_sdf_string function

 34 40  0  0  0  0  0  0  0  0999 V2000
   12.9867   -4.9927   21.0518 C   0  0  0  0  0  0  0  0  0  0  0  0
    7.9997   -7.3924   16.6695 N   0  0  0  0  0  0  0  0  0  0  0  0
   10.8225   -4.0565   21.6077 C   0  0  0  0  0  0  0  0  0  0  0  0
    2.9647   -9.5454   16.1404 C   0  0  0  0  0  0  0  0  0  0  0  0
    0.9846  -12.2036   21.1534 C   0  0  0  0  0  0  0  0  0  0  0  0
   11.3298   -3.8631   22.9564 C   0  0  0  0  0  0  0  0  0  0  0  0
   11.0487   -4.1427   17.2746 C   0  0  0  0  0  0  0  0  0  0  0  0
   13.4578   -4.8474   22.3601 C   0  0  0  0  0  0  0  0  0  0  0  0
    5.0614   -8.7971   15.4274 C   0  0  0  0  0  0  0  0  0  0  0  0
    1.5158  -11.0877   19.1653 C   0  0  0  0  0  0  0  0  0  0  0  0
   12.5582   -4.2246   23.1000 C   0  0  0  0  0  0  0  0  0  0  0  0
   10.1477   -5.0746   16.8616 C   0  0  0  0  0  0  0  0  0  0  0  0
    9.8124   -6.0070   17.9116 C   0  0  0  0  0  0  0  0  0  0  0  0
    4.2573   -9.5682   16.2979 N   0  0  0  0  0  0  0  0  0  0  0  0
   13.4621   -3.9594   25.2262 N   0  0  0  0  0  0  0  0  0  0  0  0
    6.7004   -7.0358   15.0664 C   0  0  0  0  0  0  0  0  0  0  0  0
   11.5253   -4.4407   20.7282 C   0  0  0  0  0  0  0  0  0  0  0  0
    1.8407  -11.9475   20.3639 C   0  0  0  0  0  0  0  0  0  0  0  0
    6.2606   -8.1026   15.6569 C   0  0  0  0  0  0  0  0  0  0  0  0
    0.1965  -10.7887   19.1625 C   0  0  0  0  0  0  0  0  0  0  0  0
    1.9966  -10.0389   16.9934 N   0  0  0  0  0  0  0  0  0  0  0  0
   11.2789   -3.2064   16.3092 O   0  0  0  0  0  0  0  0  0  0  0  0
   11.4006   -3.8452   18.4701 N   0  0  0  0  0  0  0  0  0  0  0  0
   13.1736   -4.0816   24.3832 C   0  0  0  0  0  0  0  0  0  0  0  0
   -0.3332  -11.8702   21.0577 C   0  0  0  0  0  0  0  0  0  0  0  0
    4.7152  -10.1785   17.4524 N   0  0  0  0  0  0  0  0  0  0  0  0
   -0.5670  -11.0250   19.9547 C   0  0  0  0  0  0  0  0  0  0  0  0
    2.5306  -10.6379   18.1772 C   0  0  0  0  0  0  0  0  0  0  0  0
    7.0201   -8.3390   16.7662 C   0  0  0  0  0  0  0  0  0  0  0  0
   11.1542   -4.7844   19.4646 C   0  0  0  0  0  0  0  0  0  0  0  0
    3.8780  -10.7762   18.2802 C   0  0  0  0  0  0  0  0  0  0  0  0
    7.8210   -6.4795   15.4883 N   0  0  0  0  0  0  0  0  0  0  0  0
   10.2642   -5.8154   19.1393 He  0  0  0  0  0  0  0  0  0  0  0  0
    9.0030   -7.1071   17.6950 He  0  0  0  0  0  0  0  0  0  0  0  0
  1  8  4  0
  2 29  4  0
  2 32  4  0
  3  6  4  0
  3 12  1  0
  3 13  1  0
  3 17  4  0
  4 14  4  0
  4 19  2  0
  5  9  1  0
  5 18  4  0
  5 25  4  0
  6 11  4  0
  6 21  2  0
  7 12  4  0
  7 22  2  0
  7 23  4  0
  8 11  4  0
  9 14  1  0
  9 19  1  0
  9 26  4  0
 10 18  4  0
 10 20  4  0
 10 27  4  0
 10 28  1  0
 11 24  1  0
 12 13  4  0
 14 26  4  0
 15 24  3  0
 16 19  4  0
 16 32  4  0
 17 30  1  0
 19 29  4  0
 20 27  4  0
 21 28  4  0
 23 30  4  0
 24 31  1  0
 25 27  4  0
 26 31  4  0
 28 31  4  0
M  END
$$$$

 Created by Python create_sdf_string function

 34 38  0  0  0  0  0  0  0  0999 V2000
   12.9245   -4.9961   20.9965 C   0  0  0  0  0  0  0  0  0  0  0  0
    7.9803   -7.3286   16.6636 N   0  0  0  0  0  0  0  0  0  0  0  0
   10.8189   -4.0241   21.6719 C   0  0  0  0  0  0  0  0  0  0  0  0
    2.9345   -9.5477   16.1604 C   0  0  0  0  0  0  0  0  0  0  0  0
    0.9751  -12.2562   21.2135 C   0  0  0  0  0  0  0  0  0  0  0  0
   11.3210   -3.8504   22.9300 C   0  0  0  0  0  0  0  0  0  0  0  0
   10.9763   -4.0526   17.2111 C   0  0  0  0  0  0  0  0  0  0  0  0
   13.4598   -4.8527   22.2321 C   0  0  0  0  0  0  0  0  0  0  0  0
    5.0651   -8.8584   15.4189 C   0  0  0  0  0  0  0  0  0  0  0  0
   10.2916   -5.8227   19.1412 C   0  0  0  0  0  0  0  0  0  0  0  0
    1.5518  -11.0951   19.1746 C   0  0  0  0  0  0  0  0  0  0  0  0
   12.6092   -4.2542   23.1639 C   0  0  0  0  0  0  0  0  0  0  0  0
   10.1605   -5.1219   16.9025 C   0  0  0  0  0  0  0  0  0  0  0  0
    9.8131   -5.9959   17.8825 C   0  0  0  0  0  0  0  0  0  0  0  0
    4.2482   -9.5384   16.3657 N   0  0  0  0  0  0  0  0  0  0  0  0
   13.4871   -3.9574   25.2524 N   0  0  0  0  0  0  0  0  0  0  0  0
    8.9709   -7.1290   17.6461 C   0  0  0  0  0  0  0  0  0  0  0  0
    6.7353   -7.0481   15.0185 C   0  0  0  0  0  0  0  0  0  0  0  0
   11.6451   -4.6003   20.7105 C   0  0  0  0  0  0  0  0  0  0  0  0
    1.8897  -11.8857   20.2845 C   0  0  0  0  0  0  0  0  0  0  0  0
    6.2306   -8.0994   15.7054 C   0  0  0  0  0  0  0  0  0  0  0  0
    0.2009  -10.7293   19.0850 C   0  0  0  0  0  0  0  0  0  0  0  0
    2.0732  -10.0302   17.0157 N   0  0  0  0  0  0  0  0  0  0  0  0
   11.3246   -3.2220   16.3196 O   0  0  0  0  0  0  0  0  0  0  0  0
   11.4501   -3.9021   18.4605 N   0  0  0  0  0  0  0  0  0  0  0  0
   13.1225   -4.0748   24.3877 C   0  0  0  0  0  0  0  0  0  0  0  0
   -0.3182  -11.8577   21.0914 C   0  0  0  0  0  0  0  0  0  0  0  0
    4.7076  -10.1944   17.4503 N   0  0  0  0  0  0  0  0  0  0  0  0
   -0.6909  -11.0901   20.0335 C   0  0  0  0  0  0  0  0  0  0  0  0
    2.5053  -10.6366   18.1690 C   0  0  0  0  0  0  0  0  0  0  0  0
    7.0643   -8.2904   16.7190 C   0  0  0  0  0  0  0  0  0  0  0  0
   11.1363   -4.7618   19.4339 C   0  0  0  0  0  0  0  0  0  0  0  0
    3.8876  -10.7357   18.2862 C   0  0  0  0  0  0  0  0  0  0  0  0
    7.8071   -6.5707   15.5954 N   0  0  0  0  0  0  0  0  0  0  0  0
  1  8  4  0
  1 19  4  0
  2 17  1  0
  2 31  4  0
  2 34  4  0
  3  6  4  0
  3 19  4  0
  4 15  4  0
  4 23  4  0
  5 20  4  0
  5 27  4  0
  6 12  4  0
  7 13  4  0
  7 24  2  0
  7 25  4  0
  8 12  4  0
  9 15  1  0
  9 21  1  0
 10 14  4  0
 10 32  4  0
 11 20  4  0
 11 22  4  0
 11 30  1  0
 12 26  1  0
 13 14  4  0
 14 17  1  0
 15 28  4  0
 16 26  3  0
 18 21  4  0
 18 34  4  0
 19 32  1  0
 21 31  4  0
 22 29  4  0
 23 30  4  0
 25 32  4  0
 27 29  4  0
 28 33  4  0
 30 33  4  0
M  END
$$$$

 Created by Python create_sdf_string function

 34 42  0  0  0  0  0  0  0  0999 V2000
   12.8464   -5.0685   21.0305 C   0  0  0  0  0  0  0  0  0  0  0  0
    8.0109   -7.3405   16.5915 N   0  0  0  0  0  0  0  0  0  0  0  0
   10.9046   -4.1259   21.6533 C   0  0  0  0  0  0  0  0  0  0  0  0
    2.8505   -9.6056   16.1731 C   0  0  0  0  0  0  0  0  0  0  0  0
    0.9912  -12.3547   21.2949 C   0  0  0  0  0  0  0  0  0  0  0  0
   11.3366   -3.8733   22.9560 C   0  0  0  0  0  0  0  0  0  0  0  0
   10.9288   -4.0421   17.1906 C   0  0  0  0  0  0  0  0  0  0  0  0
   13.4032   -4.8247   22.1940 C   0  0  0  0  0  0  0  0  0  0  0  0
    5.2038   -8.8828   15.4723 C   0  0  0  0  0  0  0  0  0  0  0  0
   10.3413   -5.8633   19.1672 C   0  0  0  0  0  0  0  0  0  0  0  0
    1.5214  -11.0361   19.1771 C   0  0  0  0  0  0  0  0  0  0  0  0
   12.6779   -4.2589   23.1195 C   0  0  0  0  0  0  0  0  0  0  0  0
   10.0325   -5.1313   16.9007 C   0  0  0  0  0  0  0  0  0  0  0  0
    9.8631   -5.9764   17.9426 C   0  0  0  0  0  0  0  0  0  0  0  0
   13.4459   -3.9812   25.2588 N   0  0  0  0  0  0  0  0  0  0  0  0
    8.7857   -7.1911   17.5988 C   0  0  0  0  0  0  0  0  0  0  0  0
    6.7770   -7.0418   15.0709 C   0  0  0  0  0  0  0  0  0  0  0  0
   11.6177   -4.4732   20.7416 C   0  0  0  0  0  0  0  0  0  0  0  0
    1.8718  -11.8403   20.3101 C   0  0  0  0  0  0  0  0  0  0  0  0
    6.2399   -8.0537   15.6452 C   0  0  0  0  0  0  0  0  0  0  0  0
    0.2198  -10.7578   19.1631 C   0  0  0  0  0  0  0  0  0  0  0  0
    2.1392  -10.0293   17.0101 N   0  0  0  0  0  0  0  0  0  0  0  0
   11.3013   -3.2622   16.3410 O   0  0  0  0  0  0  0  0  0  0  0  0
   11.4928   -3.8916   18.4064 N   0  0  0  0  0  0  0  0  0  0  0  0
   13.0428   -4.0909   24.3671 C   0  0  0  0  0  0  0  0  0  0  0  0
   -0.3041  -11.8102   21.1201 C   0  0  0  0  0  0  0  0  0  0  0  0
    4.7137  -10.1566   17.4782 N   0  0  0  0  0  0  0  0  0  0  0  0
   -0.7016  -11.1167   19.9085 C   0  0  0  0  0  0  0  0  0  0  0  0
    2.4420  -10.5702   18.1244 C   0  0  0  0  0  0  0  0  0  0  0  0
    7.0738   -8.2533   16.8159 C   0  0  0  0  0  0  0  0  0  0  0  0
   11.2342   -4.7951   19.4371 C   0  0  0  0  0  0  0  0  0  0  0  0
    3.9419  -10.7392   18.3401 C   0  0  0  0  0  0  0  0  0  0  0  0
    7.7591   -6.4833   15.6354 N   0  0  0  0  0  0  0  0  0  0  0  0
    4.2612   -9.5792   16.4006 He  0  0  0  0  0  0  0  0  0  0  0  0
  1  8  4  0
  1 18  4  0
  2 16  1  0
  2 21  1  0
  2 30  4  0
  2 33  1  0
  3  6  4  0
  3 18  4  0
  4 22  4  0
  4 28  1  0
  5 19  4  0
  5 26  4  0
  6 12  4  0
  6 23  3  0
  7 13  4  0
  7 23  2  0
  8 12  4  0
  9 20  1  0
 10 14  4  0
 10 31  4  0
 11 19  4  0
 11 20  3  0
 11 21  4  0
 11 29  1  0
 12 23  4  0
 12 25  1  0
 13 14  4  0
 14 16  1  0
 15 25  3  0
 17 20  4  0
 17 23  1  0
 17 33  4  0
 18 31  1  0
 20 25  1  0
 20 30  4  0
 21 28  4  0
 21 30  2  0
 22 29  4  0
 24 31  4  0
 25 31  1  0
 26 28  4  0
 27 32  4  0
M  END
$$$$

 Created by Python create_sdf_string function

 34 38  0  0  0  0  0  0  0  0999 V2000
   12.9346   -5.0364   20.9659 C   0  0  0  0  0  0  0  0  0  0  0  0
    7.9776   -7.3063   16.7018 N   0  0  0  0  0  0  0  0  0  0  0  0
   10.8567   -4.0573   21.6654 C   0  0  0  0  0  0  0  0  0  0  0  0
    2.9232   -9.5789   16.1796 C   0  0  0  0  0  0  0  0  0  0  0  0
    0.9924  -12.2781   21.2659 C   0  0  0  0  0  0  0  0  0  0  0  0
   11.3451   -3.8751   22.9140 C   0  0  0  0  0  0  0  0  0  0  0  0
   10.9578   -4.0580   17.1865 C   0  0  0  0  0  0  0  0  0  0  0  0
   13.4669   -4.8709   22.2102 C   0  0  0  0  0  0  0  0  0  0  0  0
    5.1216   -8.9089   15.4733 C   0  0  0  0  0  0  0  0  0  0  0  0
   10.3447   -5.8776   19.1579 C   0  0  0  0  0  0  0  0  0  0  0  0
    1.5398  -11.0745   19.2069 C   0  0  0  0  0  0  0  0  0  0  0  0
   12.6380   -4.2796   23.1355 C   0  0  0  0  0  0  0  0  0  0  0  0
   10.0795   -5.0975   16.9169 C   0  0  0  0  0  0  0  0  0  0  0  0
    9.8089   -6.0040   17.9187 C   0  0  0  0  0  0  0  0  0  0  0  0
    4.2503   -9.5651   16.3925 C   0  0  0  0  0  0  0  0  0  0  0  0
   13.4488   -3.9774   25.2754 N   0  0  0  0  0  0  0  0  0  0  0  0
    8.9863   -7.1488   17.6917 C   0  0  0  0  0  0  0  0  0  0  0  0
    6.7522   -7.0444   15.0299 C   0  0  0  0  0  0  0  0  0  0  0  0
   11.6746   -4.6266   20.6893 C   0  0  0  0  0  0  0  0  0  0  0  0
    1.8997  -11.8498   20.3063 C   0  0  0  0  0  0  0  0  0  0  0  0
    6.2502   -8.1143   15.7246 C   0  0  0  0  0  0  0  0  0  0  0  0
    0.1878  -10.7442   19.0983 C   0  0  0  0  0  0  0  0  0  0  0  0
    2.0885  -10.0405   17.0490 N   0  0  0  0  0  0  0  0  0  0  0  0
   11.2880   -3.2336   16.3100 O   0  0  0  0  0  0  0  0  0  0  0  0
   11.4556   -3.9314   18.4181 N   0  0  0  0  0  0  0  0  0  0  0  0
   13.1258   -4.0929   24.3714 C   0  0  0  0  0  0  0  0  0  0  0  0
   -0.3255  -11.8762   21.1240 C   0  0  0  0  0  0  0  0  0  0  0  0
    4.7236  -10.1786   17.5046 N   0  0  0  0  0  0  0  0  0  0  0  0
   -0.7373  -11.1344   20.0399 C   0  0  0  0  0  0  0  0  0  0  0  0
    2.5099  -10.6144   18.2062 C   0  0  0  0  0  0  0  0  0  0  0  0
    7.0682   -8.2764   16.7442 C   0  0  0  0  0  0  0  0  0  0  0  0
   11.1808   -4.7842   19.4219 C   0  0  0  0  0  0  0  0  0  0  0  0
    3.9052  -10.7031   18.3401 C   0  0  0  0  0  0  0  0  0  0  0  0
    7.7855   -6.5202   15.5986 N   0  0  0  0  0  0  0  0  0  0  0  0
  1  8  4  0
  1 19  4  0
  2 17  1  0
  2 31  4  0
  2 34  4  0
  3  6  4  0
  3 19  4  0
  4 15  4  0
  4 23  4  0
  5 20  4  0
  5 27  4  0
  6 12  4  0
  7 13  4  0
  7 24  2  0
  7 25  4  0
  8 12  4  0
  9 15  1  0
  9 21  1  0
 10 14  4  0
 10 32  4  0
 11 20  4  0
 11 22  4  0
 11 30  1  0
 12 26  1  0
 13 14  4  0
 14 17  1  0
 15 28  4  0
 16 26  3  0
 18 21  4  0
 18 34  4  0
 19 32  1  0
 21 31  4  0
 22 29  4  0
 23 30  4  0
 25 32  4  0
 27 29  4  0
 28 33  4  0
 30 33  4  0
M  END
$$$$

 Created by Python create_sdf_string function

 34 45  0  0  0  0  0  0  0  0999 V2000
   12.9718   -5.0210   20.9728 C   0  0  0  0  0  0  0  0  0  0  0  0
    7.9287   -7.3618   16.6978 N   0  0  0  0  0  0  0  0  0  0  0  0
   10.9112   -4.0650   21.7956 C   0  0  0  0  0  0  0  0  0  0  0  0
    2.9945   -9.5506   16.1783 C   0  0  0  0  0  0  0  0  0  0  0  0
    1.0583  -12.2221   21.2331 C   0  0  0  0  0  0  0  0  0  0  0  0
   11.2524   -3.8987   22.9305 C   0  0  0  0  0  0  0  0  0  0  0  0
   10.9451   -4.0312   17.2389 C   0  0  0  0  0  0  0  0  0  0  0  0
   13.5656   -4.7845   22.2337 C   0  0  0  0  0  0  0  0  0  0  0  0
    5.1838   -8.9782   15.5421 C   0  0  0  0  0  0  0  0  0  0  0  0
   10.2088   -5.9067   19.1873 C   0  0  0  0  0  0  0  0  0  0  0  0
    1.4593  -11.0587   19.2238 C   0  0  0  0  0  0  0  0  0  0  0  0
   12.5677   -4.3830   23.1800 C   0  0  0  0  0  0  0  0  0  0  0  0
   10.0356   -5.1160   16.9868 C   0  0  0  0  0  0  0  0  0  0  0  0
    9.8060   -6.0820   17.9019 C   0  0  0  0  0  0  0  0  0  0  0  0
    4.3349   -9.5668   16.4041 C   0  0  0  0  0  0  0  0  0  0  0  0
   13.4387   -3.9391   25.4079 N   0  0  0  0  0  0  0  0  0  0  0  0
    8.9767   -7.0919   17.6751 C   0  0  0  0  0  0  0  0  0  0  0  0
    6.6918   -7.0365   15.0266 C   0  0  0  0  0  0  0  0  0  0  0  0
   11.6364   -4.6386   20.7185 C   0  0  0  0  0  0  0  0  0  0  0  0
    1.8464  -11.9106   20.3334 C   0  0  0  0  0  0  0  0  0  0  0  0
    6.2361   -8.1331   15.7861 C   0  0  0  0  0  0  0  0  0  0  0  0
    0.2039  -10.7608   19.0753 C   0  0  0  0  0  0  0  0  0  0  0  0
    2.0931  -10.0293   17.0783 N   0  0  0  0  0  0  0  0  0  0  0  0
   11.3012   -3.2761   16.2969 O   0  0  0  0  0  0  0  0  0  0  0  0
   11.5091   -3.9490   18.3374 N   0  0  0  0  0  0  0  0  0  0  0  0
   13.1450   -4.1205   24.3625 C   0  0  0  0  0  0  0  0  0  0  0  0
   -0.2499  -11.7851   21.0121 C   0  0  0  0  0  0  0  0  0  0  0  0
    4.7575  -10.1637   17.3514 N   0  0  0  0  0  0  0  0  0  0  0  0
    2.4418  -10.6179   18.2379 C   0  0  0  0  0  0  0  0  0  0  0  0
    7.1032   -8.2807   16.6929 C   0  0  0  0  0  0  0  0  0  0  0  0
   11.1796   -4.7642   19.4853 C   0  0  0  0  0  0  0  0  0  0  0  0
    3.9586  -10.7435   18.3365 C   0  0  0  0  0  0  0  0  0  0  0  0
    7.8293   -6.5409   15.6778 N   0  0  0  0  0  0  0  0  0  0  0  0
   -0.7266  -11.1504   20.0817 He  0  0  0  0  0  0  0  0  0  0  0  0
  1  8  4  0
  1 19  4  0
  2 17  1  0
  2 23  2  0
  2 30  4  0
  2 32  3  0
  2 33  4  0
  3  6  4  0
  3 19  4  0
  4 15  4  0
  4 23  4  0
  5 20  4  0
  5 27  4  0
  6 12  4  0
  6 27  3  0
  7 13  4  0
  7 24  2  0
  7 25  4  0
  7 30  2  0
  8 12  3  0
  8 20  2  0
  8 26  4  0
  9 14  4  0
  9 15  1  0
  9 21  1  0
 10 14  4  0
 11 20  4  0
 11 22  4  0
 11 29  1  0
 12 26  1  0
 13 14  4  0
 14 17  1  0
 14 30  3  0
 15 28  4  0
 16 26  3  0
 17 30  3  0
 17 33  4  0
 18 21  4  0
 18 33  4  0
 19 31  1  0
 21 30  4  0
 23 29  4  0
 25 31  4  0
 28 32  4  0
 29 32  4  0
M  END
$$$$

 Created by Python create_sdf_string function

 34 38  0  0  0  0  0  0  0  0999 V2000
   12.9594   -4.9865   20.9689 C   0  0  0  0  0  0  0  0  0  0  0  0
    7.9789   -7.3386   16.7026 N   0  0  0  0  0  0  0  0  0  0  0  0
   10.8434   -4.0963   21.7019 C   0  0  0  0  0  0  0  0  0  0  0  0
    2.9493   -9.5473   16.2001 C   0  0  0  0  0  0  0  0  0  0  0  0
    1.0062  -12.2311   21.2542 C   0  0  0  0  0  0  0  0  0  0  0  0
   11.3210   -3.9319   22.9608 C   0  0  0  0  0  0  0  0  0  0  0  0
   10.9560   -4.0854   17.1933 C   0  0  0  0  0  0  0  0  0  0  0  0
   13.4949   -4.8349   22.2282 C   0  0  0  0  0  0  0  0  0  0  0  0
    5.1540   -8.9422   15.4668 C   0  0  0  0  0  0  0  0  0  0  0  0
   10.2913   -5.8828   19.1845 C   0  0  0  0  0  0  0  0  0  0  0  0
    1.5434  -11.0817   19.1938 C   0  0  0  0  0  0  0  0  0  0  0  0
   12.6407   -4.3062   23.1782 C   0  0  0  0  0  0  0  0  0  0  0  0
   10.0756   -5.1066   16.9444 C   0  0  0  0  0  0  0  0  0  0  0  0
    9.7802   -6.0166   17.9236 C   0  0  0  0  0  0  0  0  0  0  0  0
    4.2794   -9.5753   16.3897 C   0  0  0  0  0  0  0  0  0  0  0  0
   13.4505   -3.9510   25.3973 N   0  0  0  0  0  0  0  0  0  0  0  0
    9.0043   -7.1833   17.6984 C   0  0  0  0  0  0  0  0  0  0  0  0
    6.7318   -7.0532   15.0468 C   0  0  0  0  0  0  0  0  0  0  0  0
   11.6767   -4.6289   20.7064 C   0  0  0  0  0  0  0  0  0  0  0  0
    1.9235  -11.8527   20.2897 C   0  0  0  0  0  0  0  0  0  0  0  0
    6.2656   -8.1424   15.7387 C   0  0  0  0  0  0  0  0  0  0  0  0
    0.1799  -10.7495   19.0828 C   0  0  0  0  0  0  0  0  0  0  0  0
    2.1060  -10.0079   17.0704 N   0  0  0  0  0  0  0  0  0  0  0  0
   11.2859   -3.2547   16.3045 O   0  0  0  0  0  0  0  0  0  0  0  0
   11.4809   -3.9653   18.4365 N   0  0  0  0  0  0  0  0  0  0  0  0
   13.1068   -4.1360   24.4250 C   0  0  0  0  0  0  0  0  0  0  0  0
   -0.2922  -11.8565   21.1257 C   0  0  0  0  0  0  0  0  0  0  0  0
    4.7431  -10.2298   17.4985 N   0  0  0  0  0  0  0  0  0  0  0  0
   -0.7033  -11.1382   20.0574 C   0  0  0  0  0  0  0  0  0  0  0  0
    2.5117  -10.6255   18.2240 C   0  0  0  0  0  0  0  0  0  0  0  0
    7.0972   -8.3091   16.7427 C   0  0  0  0  0  0  0  0  0  0  0  0
   11.1620   -4.8180   19.4255 C   0  0  0  0  0  0  0  0  0  0  0  0
    3.9125  -10.7303   18.3255 C   0  0  0  0  0  0  0  0  0  0  0  0
    7.7789   -6.5505   15.6398 N   0  0  0  0  0  0  0  0  0  0  0  0
  1  8  4  0
  1 19  4  0
  2 17  1  0
  2 31  4  0
  2 34  4  0
  3  6  4  0
  3 19  4  0
  4 15  4  0
  4 23  4  0
  5 20  4  0
  5 27  4  0
  6 12  4  0
  7 13  4  0
  7 24  2  0
  7 25  4  0
  8 12  4  0
  9 15  1  0
  9 21  1  0
 10 14  4  0
 10 32  4  0
 11 20  4  0
 11 22  4  0
 11 30  1  0
 12 26  1  0
 13 14  4  0
 14 17  1  0
 15 28  4  0
 16 26  3  0
 18 21  4  0
 18 34  4  0
 19 32  1  0
 21 31  4  0
 22 29  4  0
 23 30  4  0
 25 32  4  0
 27 29  4  0
 28 33  4  0
 30 33  4  0
M  END
$$$$

 Created by Python create_sdf_string function

 34 43  0  0  0  0  0  0  0  0999 V2000
   13.0028   -5.0310   20.9656 C   0  0  0  0  0  0  0  0  0  0  0  0
    7.8699   -7.2353   16.7598 N   0  0  0  0  0  0  0  0  0  0  0  0
   10.8157   -4.1317   21.6849 C   0  0  0  0  0  0  0  0  0  0  0  0
    2.9386   -9.5321   16.2428 C   0  0  0  0  0  0  0  0  0  0  0  0
    1.0229  -12.2526   21.2337 C   0  0  0  0  0  0  0  0  0  0  0  0
   10.9512   -3.9978   17.2252 O   0  0  0  0  0  0  0  0  0  0  0  0
   13.4312   -4.8586   22.2626 C   0  0  0  0  0  0  0  0  0  0  0  0
    5.1466   -8.9212   15.4292 C   0  0  0  0  0  0  0  0  0  0  0  0
   10.2899   -5.8430   19.2433 C   0  0  0  0  0  0  0  0  0  0  0  0
    1.5641  -11.1398   19.2107 C   0  0  0  0  0  0  0  0  0  0  0  0
   12.5997   -4.3333   23.2273 C   0  0  0  0  0  0  0  0  0  0  0  0
   10.0580   -5.0976   16.9921 C   0  0  0  0  0  0  0  0  0  0  0  0
    9.8427   -6.0032   17.9485 C   0  0  0  0  0  0  0  0  0  0  0  0
    4.2618   -9.6232   16.4491 C   0  0  0  0  0  0  0  0  0  0  0  0
   13.4170   -3.8801   25.3582 N   0  0  0  0  0  0  0  0  0  0  0  0
    8.9655   -7.1736   17.6651 C   0  0  0  0  0  0  0  0  0  0  0  0
    6.7128   -6.9960   14.9841 C   0  0  0  0  0  0  0  0  0  0  0  0
   11.6754   -4.5496   20.6869 C   0  0  0  0  0  0  0  0  0  0  0  0
    1.9443  -11.8910   20.2712 C   0  0  0  0  0  0  0  0  0  0  0  0
    6.2566   -8.1907   15.6962 C   0  0  0  0  0  0  0  0  0  0  0  0
    0.2586  -10.7222   19.0382 C   0  0  0  0  0  0  0  0  0  0  0  0
    2.0335  -10.0165   17.0879 N   0  0  0  0  0  0  0  0  0  0  0  0
   11.2083   -3.2542   16.3089 O   0  0  0  0  0  0  0  0  0  0  0  0
   11.5422   -3.9292   18.3837 N   0  0  0  0  0  0  0  0  0  0  0  0
   13.1056   -4.0782   24.4408 C   0  0  0  0  0  0  0  0  0  0  0  0
   -0.2421  -11.8460   21.1074 C   0  0  0  0  0  0  0  0  0  0  0  0
    4.7253  -10.1878   17.4732 N   0  0  0  0  0  0  0  0  0  0  0  0
   -0.7541  -11.1396   20.0488 C   0  0  0  0  0  0  0  0  0  0  0  0
    2.5153  -10.5440   18.1849 C   0  0  0  0  0  0  0  0  0  0  0  0
    7.1809   -8.3605   16.7710 C   0  0  0  0  0  0  0  0  0  0  0  0
   11.0862   -4.8153   19.4700 C   0  0  0  0  0  0  0  0  0  0  0  0
    4.0047  -10.7727   18.2992 C   0  0  0  0  0  0  0  0  0  0  0  0
    7.7452   -6.5726   15.5597 N   0  0  0  0  0  0  0  0  0  0  0  0
   11.3199   -3.9726   22.9692 He  0  0  0  0  0  0  0  0  0  0  0  0
  1  7  4  0
  1 18  4  0
  2 16  1  0
  2 30  4  0
  2 33  4  0
  3 18  4  0
  4 14  4  0
  5 11  1  0
  5 19  4  0
  5 26  4  0
  6 23  2  0
  6 24  4  0
  7 11  4  0
  8 14  1  0
  8 15  2  0
  8 20  1  0
  9 13  4  0
  9 31  4  0
 10 19  4  0
 10 21  4  0
 10 29  1  0
 11 25  1  0
 12 13  4  0
 12 21  4  0
 13 16  1  0
 13 26  1  0
 14 27  4  0
 15 25  3  0
 16 24  2  0
 17 20  4  0
 17 33  4  0
 18 31  1  0
 19 26  3  0
 20 30  4  0
 21 26  1  0
 21 28  4  0
 22 29  4  0
 23 32  2  0
 24 31  4  0
 26 28  4  0
 27 32  4  0
 29 32  4  0
 30 33  1  0
M  END
$$$$

 Created by Python create_sdf_string function

 34 38  0  0  0  0  0  0  0  0999 V2000
   12.9585   -4.9904   20.9868 C   0  0  0  0  0  0  0  0  0  0  0  0
    7.9568   -7.3274   16.7056 N   0  0  0  0  0  0  0  0  0  0  0  0
   10.8329   -4.1238   21.6992 C   0  0  0  0  0  0  0  0  0  0  0  0
    2.9380   -9.5230   16.2305 C   0  0  0  0  0  0  0  0  0  0  0  0
    1.0327  -12.2688   21.2560 C   0  0  0  0  0  0  0  0  0  0  0  0
   11.3164   -3.9663   22.9554 C   0  0  0  0  0  0  0  0  0  0  0  0
   10.9423   -4.0524   17.1948 C   0  0  0  0  0  0  0  0  0  0  0  0
   13.4818   -4.8683   22.2418 C   0  0  0  0  0  0  0  0  0  0  0  0
    5.1362   -8.9561   15.4495 C   0  0  0  0  0  0  0  0  0  0  0  0
   10.3061   -5.8512   19.1994 C   0  0  0  0  0  0  0  0  0  0  0  0
    1.5703  -11.0967   19.2111 C   0  0  0  0  0  0  0  0  0  0  0  0
   12.6199   -4.3212   23.1811 C   0  0  0  0  0  0  0  0  0  0  0  0
   10.0874   -5.0873   16.9709 C   0  0  0  0  0  0  0  0  0  0  0  0
    9.8006   -5.9964   17.9543 C   0  0  0  0  0  0  0  0  0  0  0  0
    4.2641   -9.5714   16.4075 C   0  0  0  0  0  0  0  0  0  0  0  0
   13.4097   -3.8891   25.3564 N   0  0  0  0  0  0  0  0  0  0  0  0
    8.9789   -7.1723   17.7024 C   0  0  0  0  0  0  0  0  0  0  0  0
    6.7042   -7.0850   15.0009 C   0  0  0  0  0  0  0  0  0  0  0  0
   11.6758   -4.6268   20.7094 C   0  0  0  0  0  0  0  0  0  0  0  0
    1.9469  -11.8807   20.2939 C   0  0  0  0  0  0  0  0  0  0  0  0
    6.2487   -8.1688   15.7065 C   0  0  0  0  0  0  0  0  0  0  0  0
    0.2025  -10.7560   19.0912 C   0  0  0  0  0  0  0  0  0  0  0  0
    2.0877   -9.9937   17.0874 N   0  0  0  0  0  0  0  0  0  0  0  0
   11.2285   -3.2333   16.3207 O   0  0  0  0  0  0  0  0  0  0  0  0
   11.4865   -3.9333   18.4280 N   0  0  0  0  0  0  0  0  0  0  0  0
   13.0830   -4.0969   24.4280 C   0  0  0  0  0  0  0  0  0  0  0  0
   -0.2666  -11.8762   21.1191 C   0  0  0  0  0  0  0  0  0  0  0  0
    4.7580  -10.2197   17.4940 N   0  0  0  0  0  0  0  0  0  0  0  0
   -0.7318  -11.1386   20.0559 C   0  0  0  0  0  0  0  0  0  0  0  0
    2.5486  -10.6316   18.2243 C   0  0  0  0  0  0  0  0  0  0  0  0
    7.1053   -8.3144   16.7255 C   0  0  0  0  0  0  0  0  0  0  0  0
   11.1719   -4.7881   19.4440 C   0  0  0  0  0  0  0  0  0  0  0  0
    3.9355  -10.7383   18.3269 C   0  0  0  0  0  0  0  0  0  0  0  0
    7.7326   -6.5759   15.6451 N   0  0  0  0  0  0  0  0  0  0  0  0
  1  8  4  0
  1 19  4  0
  2 17  1  0
  2 31  4  0
  2 34  4  0
  3  6  4  0
  3 19  4  0
  4 15  4  0
  4 23  4  0
  5 20  4  0
  5 27  4  0
  6 12  4  0
  7 13  4  0
  7 24  2  0
  7 25  4  0
  8 12  4  0
  9 15  1  0
  9 21  1  0
 10 14  4  0
 10 32  4  0
 11 20  4  0
 11 22  4  0
 11 30  1  0
 12 26  1  0
 13 14  4  0
 14 17  1  0
 15 28  4  0
 16 26  3  0
 18 21  4  0
 18 34  4  0
 19 32  1  0
 21 31  4  0
 22 29  4  0
 23 30  4  0
 25 32  4  0
 27 29  4  0
 28 33  4  0
 30 33  4  0
M  END
$$$$

 Created by Python create_sdf_string function

 34 48  0  0  0  0  0  0  0  0999 V2000
   12.9306   -4.9236   20.9869 C   0  0  0  0  0  0  0  0  0  0  0  0
    8.0176   -7.3485   16.7118 N   0  0  0  0  0  0  0  0  0  0  0  0
   10.8605   -4.2151   21.6829 C   0  0  0  0  0  0  0  0  0  0  0  0
    2.9314   -9.4745   16.2445 C   0  0  0  0  0  0  0  0  0  0  0  0
    1.0252  -12.3286   21.2419 C   0  0  0  0  0  0  0  0  0  0  0  0
   11.2334   -4.0097   22.9802 C   0  0  0  0  0  0  0  0  0  0  0  0
   10.9366   -4.0719   17.1568 C   0  0  0  0  0  0  0  0  0  0  0  0
   13.5255   -4.8553   22.2785 C   0  0  0  0  0  0  0  0  0  0  0  0
    5.1657   -8.9537   15.4324 C   0  0  0  0  0  0  0  0  0  0  0  0
   10.3120   -5.8474   19.2466 C   0  0  0  0  0  0  0  0  0  0  0  0
    1.5128  -11.0639   19.2248 C   0  0  0  0  0  0  0  0  0  0  0  0
   12.6252   -4.3454   23.2182 C   0  0  0  0  0  0  0  0  0  0  0  0
   10.0135   -5.1235   16.9762 C   0  0  0  0  0  0  0  0  0  0  0  0
    9.8529   -5.9355   17.9466 C   0  0  0  0  0  0  0  0  0  0  0  0
    4.2773   -9.5414   16.3961 C   0  0  0  0  0  0  0  0  0  0  0  0
   13.4672   -3.9318   25.3200 N   0  0  0  0  0  0  0  0  0  0  0  0
    9.0007   -7.1631   17.7005 C   0  0  0  0  0  0  0  0  0  0  0  0
    6.6907   -7.0417   14.9424 C   0  0  0  0  0  0  0  0  0  0  0  0
   11.6182   -4.6473   20.6845 C   0  0  0  0  0  0  0  0  0  0  0  0
    1.9378  -11.7724   20.3256 C   0  0  0  0  0  0  0  0  0  0  0  0
    6.2622   -8.1599   15.6821 C   0  0  0  0  0  0  0  0  0  0  0  0
    0.2483  -10.7763   19.0860 Cl  0  0  0  0  0  0  0  0  0  0  0  0
    2.1280  -10.0353   17.0852 N   0  0  0  0  0  0  0  0  0  0  0  0
   11.2693   -3.1470   16.3291 O   0  0  0  0  0  0  0  0  0  0  0  0
   11.5163   -3.9014   18.4239 N   0  0  0  0  0  0  0  0  0  0  0  0
   13.0199   -4.0420   24.4367 C   0  0  0  0  0  0  0  0  0  0  0  0
   -0.3098  -11.9302   21.1086 C   0  0  0  0  0  0  0  0  0  0  0  0
    4.7639  -10.2264   17.5204 N   0  0  0  0  0  0  0  0  0  0  0  0
   -0.6927  -11.2119   20.0558 C   0  0  0  0  0  0  0  0  0  0  0  0
    2.5333  -10.6331   18.2169 C   0  0  0  0  0  0  0  0  0  0  0  0
    7.1427   -8.3319   16.7558 C   0  0  0  0  0  0  0  0  0  0  0  0
   11.1072   -4.8142   19.4185 C   0  0  0  0  0  0  0  0  0  0  0  0
    3.9560  -10.7177   18.3386 C   0  0  0  0  0  0  0  0  0  0  0  0
    7.7736   -6.5601   15.6986 N   0  0  0  0  0  0  0  0  0  0  0  0
  1  8  4  0
  1 19  4  0
  2 17  1  0
  2 31  4  0
  2 34  4  0
  3  6  4  0
  3 19  4  0
  4  5  3  0
  4 15  4  0
  4 23  4  0
  5 20  4  0
  5 27  4  0
  5 28  3  0
  5 30  2  0
  6 12  4  0
  7 13  4  0
  7 20  2  0
  7 24  2  0
  7 25  4  0
  8 12  4  0
  8 33  1  0
  9 15  1  0
  9 21  1  0
 10 14  4  0
 10 32  4  0
 11 20  4  0
 11 22  4  0
 11 28  1  0
 12 26  1  0
 13 14  4  0
 14 17  1  0
 14 22  4  0
 15 28  4  0
 16 26  3  0
 16 32  3  0
 18 21  4  0
 18 34  4  0
 19 32  1  0
 20 26  3  0
 21 27  1  0
 21 31  4  0
 22 29  4  0
 23 30  4  0
 25 30  2  0
 25 32  4  0
 27 29  4  0
 28 33  4  0
 30 33  4  0
M  END
$$$$

 Created by Python create_sdf_string function

 34 38  0  0  0  0  0  0  0  0999 V2000
   12.9791   -4.9499   20.9964 C   0  0  0  0  0  0  0  0  0  0  0  0
    7.9801   -7.3542   16.6874 N   0  0  0  0  0  0  0  0  0  0  0  0
   10.8240   -4.1997   21.7169 C   0  0  0  0  0  0  0  0  0  0  0  0
    2.9401   -9.5075   16.2367 C   0  0  0  0  0  0  0  0  0  0  0  0
    1.0347  -12.3033   21.2677 C   0  0  0  0  0  0  0  0  0  0  0  0
   11.2883   -4.0252   22.9694 C   0  0  0  0  0  0  0  0  0  0  0  0
   10.9398   -4.0509   17.2058 C   0  0  0  0  0  0  0  0  0  0  0  0
   13.5007   -4.8316   22.2369 C   0  0  0  0  0  0  0  0  0  0  0  0
    5.1445   -8.9468   15.4651 C   0  0  0  0  0  0  0  0  0  0  0  0
   10.3193   -5.8586   19.2055 C   0  0  0  0  0  0  0  0  0  0  0  0
    1.5622  -11.0878   19.2384 C   0  0  0  0  0  0  0  0  0  0  0  0
   12.6195   -4.3252   23.1993 C   0  0  0  0  0  0  0  0  0  0  0  0
   10.0724   -5.1048   16.9682 C   0  0  0  0  0  0  0  0  0  0  0  0
    9.8174   -5.9985   17.9677 C   0  0  0  0  0  0  0  0  0  0  0  0
    4.2758   -9.5558   16.4148 C   0  0  0  0  0  0  0  0  0  0  0  0
   13.4586   -3.9263   25.3306 N   0  0  0  0  0  0  0  0  0  0  0  0
    8.9948   -7.1851   17.6949 C   0  0  0  0  0  0  0  0  0  0  0  0
    6.7218   -7.0737   14.9887 C   0  0  0  0  0  0  0  0  0  0  0  0
   11.6808   -4.6434   20.7195 C   0  0  0  0  0  0  0  0  0  0  0  0
    1.9420  -11.8301   20.3417 C   0  0  0  0  0  0  0  0  0  0  0  0
    6.2740   -8.1623   15.7047 C   0  0  0  0  0  0  0  0  0  0  0  0
    0.2130  -10.7910   19.1129 C   0  0  0  0  0  0  0  0  0  0  0  0
    2.1148  -10.0114   17.1094 N   0  0  0  0  0  0  0  0  0  0  0  0
   11.2577   -3.1911   16.3303 O   0  0  0  0  0  0  0  0  0  0  0  0
   11.4838   -3.9434   18.4421 N   0  0  0  0  0  0  0  0  0  0  0  0
   13.0944   -4.1038   24.4286 C   0  0  0  0  0  0  0  0  0  0  0  0
   -0.3015  -11.9567   21.1197 C   0  0  0  0  0  0  0  0  0  0  0  0
    4.7549  -10.2151   17.5106 N   0  0  0  0  0  0  0  0  0  0  0  0
   -0.7105  -11.2025   20.0460 C   0  0  0  0  0  0  0  0  0  0  0  0
    2.5358  -10.6208   18.2450 C   0  0  0  0  0  0  0  0  0  0  0  0
    7.1206   -8.3321   16.7284 C   0  0  0  0  0  0  0  0  0  0  0  0
   11.1670   -4.8077   19.4440 C   0  0  0  0  0  0  0  0  0  0  0  0
    3.9242  -10.7258   18.3455 C   0  0  0  0  0  0  0  0  0  0  0  0
    7.7547   -6.5701   15.6395 N   0  0  0  0  0  0  0  0  0  0  0  0
  1  8  4  0
  1 19  4  0
  2 17  1  0
  2 31  4  0
  2 34  4  0
  3  6  4  0
  3 19  4  0
  4 15  4  0
  4 23  4  0
  5 20  4  0
  5 27  4  0
  6 12  4  0
  7 13  4  0
  7 24  2  0
  7 25  4  0
  8 12  4  0
  9 15  1  0
  9 21  1  0
 10 14  4  0
 10 32  4  0
 11 20  4  0
 11 22  4  0
 11 30  1  0
 12 26  1  0
 13 14  4  0
 14 17  1  0
 15 28  4  0
 16 26  3  0
 18 21  4  0
 18 34  4  0
 19 32  1  0
 21 31  4  0
 22 29  4  0
 23 30  4  0
 25 32  4  0
 27 29  4  0
 28 33  4  0
 30 33  4  0
M  END
$$$$

 Created by Python create_sdf_string function

 34 42  0  0  0  0  0  0  0  0999 V2000
   12.9514   -4.9873   20.9507 C   0  0  0  0  0  0  0  0  0  0  0  0
    8.0252   -7.3613   16.6401 N   0  0  0  0  0  0  0  0  0  0  0  0
   10.8136   -4.2699   21.7454 C   0  0  0  0  0  0  0  0  0  0  0  0
    2.9415   -9.5702   16.2421 C   0  0  0  0  0  0  0  0  0  0  0  0
    0.9503  -12.3720   21.2210 C   0  0  0  0  0  0  0  0  0  0  0  0
   11.2733   -4.0763   22.9575 C   0  0  0  0  0  0  0  0  0  0  0  0
   10.8804   -4.0780   17.2211 C   0  0  0  0  0  0  0  0  0  0  0  0
   13.4320   -4.8684   22.2825 C   0  0  0  0  0  0  0  0  0  0  0  0
    5.1112   -8.9588   15.4848 C   0  0  0  0  0  0  0  0  0  0  0  0
   10.3048   -5.9296   19.2158 C   0  0  0  0  0  0  0  0  0  0  0  0
    1.5325  -11.0909   19.2118 C   0  0  0  0  0  0  0  0  0  0  0  0
   12.6357   -4.2767   23.2081 C   0  0  0  0  0  0  0  0  0  0  0  0
   10.0591   -5.1136   16.9907 C   0  0  0  0  0  0  0  0  0  0  0  0
    9.8028   -5.9510   17.9616 C   0  0  0  0  0  0  0  0  0  0  0  0
    4.2849   -9.5491   16.4298 C   0  0  0  0  0  0  0  0  0  0  0  0
   13.4598   -3.8802   25.2912 N   0  0  0  0  0  0  0  0  0  0  0  0
    8.9725   -7.2383   17.7253 C   0  0  0  0  0  0  0  0  0  0  0  0
    6.6965   -7.1141   14.9341 C   0  0  0  0  0  0  0  0  0  0  0  0
   11.6456   -4.6181   20.7255 C   0  0  0  0  0  0  0  0  0  0  0  0
    1.9616  -11.8672   20.3477 C   0  0  0  0  0  0  0  0  0  0  0  0
    6.2644   -8.1231   15.6817 C   0  0  0  0  0  0  0  0  0  0  0  0
    0.2486  -10.8229   19.1632 C   0  0  0  0  0  0  0  0  0  0  0  0
    2.1064  -10.0354   17.1572 N   0  0  0  0  0  0  0  0  0  0  0  0
   11.2560   -3.1595   16.3402 O   0  0  0  0  0  0  0  0  0  0  0  0
   11.5055   -3.9362   18.4884 N   0  0  0  0  0  0  0  0  0  0  0  0
   13.1097   -4.0894   24.4678 C   0  0  0  0  0  0  0  0  0  0  0  0
   -0.2917  -11.9529   21.1729 C   0  0  0  0  0  0  0  0  0  0  0  0
    4.7049  -10.2574   17.5122 N   0  0  0  0  0  0  0  0  0  0  0  0
   -0.7122  -11.2275   19.9802 C   0  0  0  0  0  0  0  0  0  0  0  0
    2.5073  -10.5811   18.2383 C   0  0  0  0  0  0  0  0  0  0  0  0
    7.1734   -8.3109   16.7403 C   0  0  0  0  0  0  0  0  0  0  0  0
   11.1806   -4.8010   19.4823 C   0  0  0  0  0  0  0  0  0  0  0  0
    3.9199  -10.7649   18.3118 C   0  0  0  0  0  0  0  0  0  0  0  0
    7.7906   -6.6051   15.6491 N   0  0  0  0  0  0  0  0  0  0  0  0
  1  8  4  0
  1 19  4  0
  2 17  1  0
  2 21  4  0
  2 31  4  0
  2 34  4  0
  3  6  4  0
  3 19  4  0
  4 15  4  0
  4 23  4  0
  5 20  4  0
  5 27  4  0
  5 32  1  0
  5 33  4  0
  6 12  4  0
  7 13  4  0
  7 24  2  0
  7 25  4  0
  8 12  4  0
  8 24  3  0
  9 21  1  0
 10 14  4  0
 10 32  4  0
 11 20  4  0
 11 30  1  0
 12 26  1  0
 13 14  4  0
 14 17  1  0
 15 28  4  0
 16 26  3  0
 18 21  4  0
 18 29  3  0
 18 34  4  0
 19 32  1  0
 21 31  4  0
 22 29  4  0
 23 30  4  0
 25 32  4  0
 26 28  1  0
 27 29  4  0
 28 33  4  0
 30 33  4  0
M  END
$$$$

 Created by Python create_sdf_string function

 34 38  0  0  0  0  0  0  0  0999 V2000
   12.9760   -4.9734   20.9888 C   0  0  0  0  0  0  0  0  0  0  0  0
    8.0040   -7.3672   16.6739 N   0  0  0  0  0  0  0  0  0  0  0  0
   10.8099   -4.2460   21.7368 C   0  0  0  0  0  0  0  0  0  0  0  0
    2.9353   -9.5443   16.2402 C   0  0  0  0  0  0  0  0  0  0  0  0
    1.0146  -12.3535   21.2557 C   0  0  0  0  0  0  0  0  0  0  0  0
   11.2960   -4.0604   22.9773 C   0  0  0  0  0  0  0  0  0  0  0  0
   10.9310   -4.0545   17.2400 C   0  0  0  0  0  0  0  0  0  0  0  0
   13.4904   -4.8460   22.2378 C   0  0  0  0  0  0  0  0  0  0  0  0
    5.1273   -8.9447   15.4913 C   0  0  0  0  0  0  0  0  0  0  0  0
   10.3220   -5.9026   19.2055 C   0  0  0  0  0  0  0  0  0  0  0  0
    1.5594  -11.1093   19.2478 C   0  0  0  0  0  0  0  0  0  0  0  0
   12.6283   -4.3300   23.1903 C   0  0  0  0  0  0  0  0  0  0  0  0
   10.0648   -5.1028   16.9847 C   0  0  0  0  0  0  0  0  0  0  0  0
    9.8045   -6.0187   17.9682 C   0  0  0  0  0  0  0  0  0  0  0  0
    4.2627   -9.5824   16.4267 C   0  0  0  0  0  0  0  0  0  0  0  0
   13.4626   -3.8875   25.3103 N   0  0  0  0  0  0  0  0  0  0  0  0
    8.9974   -7.2162   17.7002 C   0  0  0  0  0  0  0  0  0  0  0  0
    6.7303   -7.1205   14.9758 C   0  0  0  0  0  0  0  0  0  0  0  0
   11.6793   -4.6702   20.7307 C   0  0  0  0  0  0  0  0  0  0  0  0
    1.9320  -11.8846   20.3395 C   0  0  0  0  0  0  0  0  0  0  0  0
    6.2772   -8.1677   15.7107 C   0  0  0  0  0  0  0  0  0  0  0  0
    0.2037  -10.8127   19.1371 C   0  0  0  0  0  0  0  0  0  0  0  0
    2.0976  -10.0093   17.1296 N   0  0  0  0  0  0  0  0  0  0  0  0
   11.2373   -3.1886   16.3614 O   0  0  0  0  0  0  0  0  0  0  0  0
   11.4750   -3.9535   18.4745 N   0  0  0  0  0  0  0  0  0  0  0  0
   13.1197   -4.0781   24.4200 C   0  0  0  0  0  0  0  0  0  0  0  0
   -0.3232  -11.9799   21.1443 C   0  0  0  0  0  0  0  0  0  0  0  0
    4.7381  -10.2485   17.5158 N   0  0  0  0  0  0  0  0  0  0  0  0
   -0.7357  -11.2315   20.0388 C   0  0  0  0  0  0  0  0  0  0  0  0
    2.5358  -10.6385   18.2578 C   0  0  0  0  0  0  0  0  0  0  0  0
    7.1340   -8.3228   16.7157 C   0  0  0  0  0  0  0  0  0  0  0  0
   11.1690   -4.8334   19.4687 C   0  0  0  0  0  0  0  0  0  0  0  0
    3.9164  -10.7565   18.3494 C   0  0  0  0  0  0  0  0  0  0  0  0
    7.7748   -6.6256   15.6069 N   0  0  0  0  0  0  0  0  0  0  0  0
  1  8  4  0
  1 19  4  0
  2 17  1  0
  2 31  4  0
  2 34  4  0
  3  6  4  0
  3 19  4  0
  4 15  4  0
  4 23  4  0
  5 20  4  0
  5 27  4  0
  6 12  4  0
  7 13  4  0
  7 24  2  0
  7 25  4  0
  8 12  4  0
  9 15  1  0
  9 21  1  0
 10 14  4  0
 10 32  4  0
 11 20  4  0
 11 22  4  0
 11 30  1  0
 12 26  1  0
 13 14  4  0
 14 17  1  0
 15 28  4  0
 16 26  3  0
 18 21  4  0
 18 34  4  0
 19 32  1  0
 21 31  4  0
 22 29  4  0
 23 30  4  0
 25 32  4  0
 27 29  4  0
 28 33  4  0
 30 33  4  0
M  END
$$$$

 Created by Python create_sdf_string function

 34 46  0  0  0  0  0  0  0  0999 V2000
   12.9941   -4.9583   20.9743 C   0  0  0  0  0  0  0  0  0  0  0  0
    8.0054   -7.3487   16.7379 N   0  0  0  0  0  0  0  0  0  0  0  0
   10.8267   -4.2258   21.7405 C   0  0  0  0  0  0  0  0  0  0  0  0
    2.9130   -9.5533   16.2310 C   0  0  0  0  0  0  0  0  0  0  0  0
    0.9980  -12.3524   21.2384 C   0  0  0  0  0  0  0  0  0  0  0  0
   11.3052   -4.0358   23.0225 C   0  0  0  0  0  0  0  0  0  0  0  0
   10.9103   -4.0782   17.2432 C   0  0  0  0  0  0  0  0  0  0  0  0
   13.4479   -4.8536   22.2020 C   0  0  0  0  0  0  0  0  0  0  0  0
    5.1468   -8.9349   15.5278 C   0  0  0  0  0  0  0  0  0  0  0  0
   10.3667   -5.9494   19.2465 C   0  0  0  0  0  0  0  0  0  0  0  0
    1.6230  -11.1230   19.2415 C   0  0  0  0  0  0  0  0  0  0  0  0
   12.6330   -4.3377   23.1589 C   0  0  0  0  0  0  0  0  0  0  0  0
   10.0429   -5.1218   16.9932 C   0  0  0  0  0  0  0  0  0  0  0  0
    9.7855   -6.0037   17.9187 C   0  0  0  0  0  0  0  0  0  0  0  0
    4.2070   -9.6003   16.4484 C   0  0  0  0  0  0  0  0  0  0  0  0
   13.4177   -3.8884   25.3467 N   0  0  0  0  0  0  0  0  0  0  0  0
    9.0050   -7.2560   17.6915 C   0  0  0  0  0  0  0  0  0  0  0  0
    6.6958   -7.0797   15.0190 C   0  0  0  0  0  0  0  0  0  0  0  0
   11.6677   -4.7156   20.7649 C   0  0  0  0  0  0  0  0  0  0  0  0
    1.8712  -11.8942   20.3415 C   0  0  0  0  0  0  0  0  0  0  0  0
    6.3091   -8.1917   15.6805 C   0  0  0  0  0  0  0  0  0  0  0  0
    0.2311  -10.8337   19.0853 C   0  0  0  0  0  0  0  0  0  0  0  0
    2.1059  -10.0480   17.1253 N   0  0  0  0  0  0  0  0  0  0  0  0
   11.2252   -3.2338   16.4093 O   0  0  0  0  0  0  0  0  0  0  0  0
   11.4240   -3.9130   18.4813 N   0  0  0  0  0  0  0  0  0  0  0  0
   13.0962   -4.0689   24.4151 C   0  0  0  0  0  0  0  0  0  0  0  0
   -0.3468  -11.9533   21.2024 C   0  0  0  0  0  0  0  0  0  0  0  0
    4.7558  -10.2685   17.4737 N   0  0  0  0  0  0  0  0  0  0  0  0
   -0.7500  -11.2744   20.0229 C   0  0  0  0  0  0  0  0  0  0  0  0
    2.4798  -10.6319   18.2822 C   0  0  0  0  0  0  0  0  0  0  0  0
    7.0768   -8.3156   16.6972 C   0  0  0  0  0  0  0  0  0  0  0  0
   11.1270   -4.8307   19.4883 C   0  0  0  0  0  0  0  0  0  0  0  0
    3.9321  -10.7924   18.3110 C   0  0  0  0  0  0  0  0  0  0  0  0
    7.8204   -6.6087   15.6047 N   0  0  0  0  0  0  0  0  0  0  0  0
  1  8  4  0
  1 19  4  0
  2 15  3  0
  2 17  1  0
  2 31  4  0
  2 34  4  0
  3  6  4  0
  3 19  4  0
  4 15  4  0
  4 22  1  0
  4 23  4  0
  4 33  2  0
  5 20  4  0
  5 27  4  0
  6 12  4  0
  6 21  1  0
  6 26  4  0
  6 32  3  0
  7 13  4  0
  7 24  2  0
  7 25  4  0
  8  9  1  0
  8 12  4  0
  9 15  1  0
  9 21  1  0
 10 14  4  0
 10 32  4  0
 11 20  4  0
 11 22  4  0
 11 30  1  0
 12 14  1  0
 12 26  1  0
 13 14  4  0
 14 17  1  0
 15 28  4  0
 16 26  3  0
 18 21  4  0
 18 34  4  0
 19 32  1  0
 21 31  4  0
 22 29  4  0
 23 30  4  0
 25 32  4  0
 27 29  4  0
 28 33  4  0
 30 33  4  0
M  END
$$$$

 Created by Python create_sdf_string function

 34 38  0  0  0  0  0  0  0  0999 V2000
   12.9864   -4.9878   20.9639 C   0  0  0  0  0  0  0  0  0  0  0  0
    7.9942   -7.3768   16.6820 N   0  0  0  0  0  0  0  0  0  0  0  0
   10.8264   -4.2366   21.7363 C   0  0  0  0  0  0  0  0  0  0  0  0
    2.9107   -9.5516   16.2442 C   0  0  0  0  0  0  0  0  0  0  0  0
    1.0102  -12.3491   21.2870 C   0  0  0  0  0  0  0  0  0  0  0  0
   11.3305   -4.0492   22.9756 C   0  0  0  0  0  0  0  0  0  0  0  0
   10.9069   -4.0744   17.2701 C   0  0  0  0  0  0  0  0  0  0  0  0
   13.5067   -4.8386   22.2068 C   0  0  0  0  0  0  0  0  0  0  0  0
    5.1096   -8.9660   15.4934 C   0  0  0  0  0  0  0  0  0  0  0  0
   10.3448   -5.9415   19.2126 C   0  0  0  0  0  0  0  0  0  0  0  0
    1.5599  -11.1414   19.2481 C   0  0  0  0  0  0  0  0  0  0  0  0
   12.6515   -4.3383   23.1644 C   0  0  0  0  0  0  0  0  0  0  0  0
   10.0587   -5.1285   16.9906 C   0  0  0  0  0  0  0  0  0  0  0  0
    9.8115   -6.0554   17.9719 C   0  0  0  0  0  0  0  0  0  0  0  0
    4.2372   -9.6033   16.4285 C   0  0  0  0  0  0  0  0  0  0  0  0
   13.4267   -3.8919   25.3483 N   0  0  0  0  0  0  0  0  0  0  0  0
    9.0073   -7.2398   17.6817 C   0  0  0  0  0  0  0  0  0  0  0  0
    6.7425   -7.1081   15.0136 C   0  0  0  0  0  0  0  0  0  0  0  0
   11.6796   -4.6832   20.7308 C   0  0  0  0  0  0  0  0  0  0  0  0
    1.9026  -11.9029   20.3552 C   0  0  0  0  0  0  0  0  0  0  0  0
    6.2655   -8.1713   15.7170 C   0  0  0  0  0  0  0  0  0  0  0  0
    0.1892  -10.8514   19.1262 C   0  0  0  0  0  0  0  0  0  0  0  0
    2.0809  -10.0287   17.1283 N   0  0  0  0  0  0  0  0  0  0  0  0
   11.2230   -3.2334   16.4117 O   0  0  0  0  0  0  0  0  0  0  0  0
   11.4245   -3.9548   18.5124 N   0  0  0  0  0  0  0  0  0  0  0  0
   13.1267   -4.0968   24.4149 C   0  0  0  0  0  0  0  0  0  0  0  0
   -0.3295  -11.9808   21.1722 C   0  0  0  0  0  0  0  0  0  0  0  0
    4.7412  -10.2672   17.5013 N   0  0  0  0  0  0  0  0  0  0  0  0
   -0.7514  -11.2648   20.0462 C   0  0  0  0  0  0  0  0  0  0  0  0
    2.5302  -10.6647   18.2577 C   0  0  0  0  0  0  0  0  0  0  0  0
    7.1073   -8.3291   16.7263 C   0  0  0  0  0  0  0  0  0  0  0  0
   11.1555   -4.8513   19.4857 C   0  0  0  0  0  0  0  0  0  0  0  0
    3.9164  -10.7831   18.3386 C   0  0  0  0  0  0  0  0  0  0  0  0
    7.7990   -6.6123   15.6071 N   0  0  0  0  0  0  0  0  0  0  0  0
  1  8  4  0
  1 19  4  0
  2 17  1  0
  2 31  4  0
  2 34  4  0
  3  6  4  0
  3 19  4  0
  4 15  4  0
  4 23  4  0
  5 20  4  0
  5 27  4  0
  6 12  4  0
  7 13  4  0
  7 24  2  0
  7 25  4  0
  8 12  4  0
  9 15  1  0
  9 21  1  0
 10 14  4  0
 10 32  4  0
 11 20  4  0
 11 22  4  0
 11 30  1  0
 12 26  1  0
 13 14  4  0
 14 17  1  0
 15 28  4  0
 16 26  3  0
 18 21  4  0
 18 34  4  0
 19 32  1  0
 21 31  4  0
 22 29  4  0
 23 30  4  0
 25 32  4  0
 27 29  4  0
 28 33  4  0
 30 33  4  0
M  END
$$$$

 Created by Python create_sdf_string function

 34 42  0  0  0  0  0  0  0  0999 V2000
   13.0212   -5.0259   20.9740 C   0  0  0  0  0  0  0  0  0  0  0  0
    8.0254   -7.3853   16.6622 N   0  0  0  0  0  0  0  0  0  0  0  0
   10.8427   -4.2563   21.7620 C   0  0  0  0  0  0  0  0  0  0  0  0
    2.9244   -9.5202   16.2144 C   0  0  0  0  0  0  0  0  0  0  0  0
    1.0027  -12.3927   21.2929 C   0  0  0  0  0  0  0  0  0  0  0  0
   11.3582   -3.9811   22.9728 C   0  0  0  0  0  0  0  0  0  0  0  0
   10.9245   -4.0566   17.2917 C   0  0  0  0  0  0  0  0  0  0  0  0
   13.4909   -4.8320   22.2047 C   0  0  0  0  0  0  0  0  0  0  0  0
    5.1183   -8.9284   15.5286 C   0  0  0  0  0  0  0  0  0  0  0  0
   10.3270   -5.9423   19.2199 C   0  0  0  0  0  0  0  0  0  0  0  0
    1.5367  -11.0829   19.2449 C   0  0  0  0  0  0  0  0  0  0  0  0
   12.6580   -4.3263   23.1470 C   0  0  0  0  0  0  0  0  0  0  0  0
   10.0399   -5.1451   16.9961 C   0  0  0  0  0  0  0  0  0  0  0  0
    9.8151   -6.0276   17.9944 C   0  0  0  0  0  0  0  0  0  0  0  0
    4.2433   -9.6178   16.4340 C   0  0  0  0  0  0  0  0  0  0  0  0
   13.4480   -3.8722   25.3592 N   0  0  0  0  0  0  0  0  0  0  0  0
    8.9397   -7.2391   17.6842 C   0  0  0  0  0  0  0  0  0  0  0  0
    6.7605   -7.0761   14.9314 C   0  0  0  0  0  0  0  0  0  0  0  0
   11.6824   -4.6663   20.7449 C   0  0  0  0  0  0  0  0  0  0  0  0
    1.9102  -11.9242   20.3594 C   0  0  0  0  0  0  0  0  0  0  0  0
    6.2270   -8.1702   15.6919 C   0  0  0  0  0  0  0  0  0  0  0  0
    0.2098  -10.8640   19.1166 C   0  0  0  0  0  0  0  0  0  0  0  0
    2.0998  -10.0683   17.1625 N   0  0  0  0  0  0  0  0  0  0  0  0
   11.2569   -3.2564   16.3535 O   0  0  0  0  0  0  0  0  0  0  0  0
   11.3876   -3.9831   18.4731 N   0  0  0  0  0  0  0  0  0  0  0  0
   13.0890   -4.0947   24.3833 C   0  0  0  0  0  0  0  0  0  0  0  0
   -0.3188  -11.9688   21.1584 C   0  0  0  0  0  0  0  0  0  0  0  0
    4.7260  -10.2237   17.5329 N   0  0  0  0  0  0  0  0  0  0  0  0
   -0.7312  -11.2490   20.0558 C   0  0  0  0  0  0  0  0  0  0  0  0
    2.5351  -10.6512   18.2075 C   0  0  0  0  0  0  0  0  0  0  0  0
    7.0617   -8.2893   16.7577 C   0  0  0  0  0  0  0  0  0  0  0  0
   11.1220   -4.8474   19.4961 C   0  0  0  0  0  0  0  0  0  0  0  0
    3.9083  -10.7850   18.3638 C   0  0  0  0  0  0  0  0  0  0  0  0
    7.7827   -6.6331   15.5795 N   0  0  0  0  0  0  0  0  0  0  0  0
  1 19  4  0
  2 17  1  0
  2 31  4  0
  2 34  4  0
  3  6  4  0
  3  7  2  0
  3 19  4  0
  3 23  4  0
  4 15  4  0
  4 23  4  0
  5 20  4  0
  6 12  4  0
  7 13  4  0
  7 24  2  0
  7 25  4  0
  8 12  4  0
  9 15  1  0
  9 21  1  0
 10 14  4  0
 10 32  4  0
 11 20  4  0
 11 22  4  0
 11 23  3  0
 11 30  1  0
 12 26  1  0
 13 14  4  0
 14 17  1  0
 14 30  1  0
 15 28  4  0
 16 26  3  0
 18 21  4  0
 18 34  4  0
 19 32  1  0
 21 31  4  0
 22 29  4  0
 23 30  4  0
 25 32  4  0
 26 31  3  0
 26 33  1  0
 27 29  4  0
 28 33  4  0
 30 33  4  0
M  END
$$$$

 Created by Python create_sdf_string function

 34 38  0  0  0  0  0  0  0  0999 V2000
   12.9782   -5.0062   20.9550 C   0  0  0  0  0  0  0  0  0  0  0  0
    7.9793   -7.3774   16.6643 N   0  0  0  0  0  0  0  0  0  0  0  0
   10.8418   -4.2292   21.7222 C   0  0  0  0  0  0  0  0  0  0  0  0
    2.9196   -9.5478   16.2389 C   0  0  0  0  0  0  0  0  0  0  0  0
    1.0157  -12.3743   21.2990 C   0  0  0  0  0  0  0  0  0  0  0  0
   11.3572   -4.0109   22.9500 C   0  0  0  0  0  0  0  0  0  0  0  0
   10.9064   -4.1015   17.2706 C   0  0  0  0  0  0  0  0  0  0  0  0
   13.5236   -4.8395   22.1998 C   0  0  0  0  0  0  0  0  0  0  0  0
    5.1052   -8.9470   15.5081 C   0  0  0  0  0  0  0  0  0  0  0  0
   10.3371   -5.9301   19.2117 C   0  0  0  0  0  0  0  0  0  0  0  0
    1.5523  -11.1497   19.2493 C   0  0  0  0  0  0  0  0  0  0  0  0
   12.6744   -4.3209   23.1551 C   0  0  0  0  0  0  0  0  0  0  0  0
   10.0563   -5.1415   16.9998 C   0  0  0  0  0  0  0  0  0  0  0  0
    9.8055   -6.0566   17.9811 C   0  0  0  0  0  0  0  0  0  0  0  0
    4.2394   -9.5933   16.4493 C   0  0  0  0  0  0  0  0  0  0  0  0
   13.4488   -3.8830   25.3525 N   0  0  0  0  0  0  0  0  0  0  0  0
    8.9795   -7.2297   17.6935 C   0  0  0  0  0  0  0  0  0  0  0  0
    6.7594   -7.1219   14.9549 C   0  0  0  0  0  0  0  0  0  0  0  0
   11.6838   -4.6933   20.7252 C   0  0  0  0  0  0  0  0  0  0  0  0
    1.9154  -11.9188   20.3607 C   0  0  0  0  0  0  0  0  0  0  0  0
    6.2447   -8.1583   15.7097 C   0  0  0  0  0  0  0  0  0  0  0  0
    0.1827  -10.8506   19.1305 C   0  0  0  0  0  0  0  0  0  0  0  0
    2.0950  -10.0388   17.1233 N   0  0  0  0  0  0  0  0  0  0  0  0
   11.2393   -3.2575   16.3816 O   0  0  0  0  0  0  0  0  0  0  0  0
   11.4196   -3.9821   18.5098 N   0  0  0  0  0  0  0  0  0  0  0  0
   13.1407   -4.0926   24.3931 C   0  0  0  0  0  0  0  0  0  0  0  0
   -0.3241  -11.9942   21.1641 C   0  0  0  0  0  0  0  0  0  0  0  0
    4.7315  -10.2394   17.5382 N   0  0  0  0  0  0  0  0  0  0  0  0
   -0.7428  -11.2463   20.0610 C   0  0  0  0  0  0  0  0  0  0  0  0
    2.5314  -10.6627   18.2594 C   0  0  0  0  0  0  0  0  0  0  0  0
    7.0685   -8.2980   16.7373 C   0  0  0  0  0  0  0  0  0  0  0  0
   11.1529   -4.8659   19.4848 C   0  0  0  0  0  0  0  0  0  0  0  0
    3.9131  -10.7700   18.3597 C   0  0  0  0  0  0  0  0  0  0  0  0
    7.8004   -6.6427   15.5692 N   0  0  0  0  0  0  0  0  0  0  0  0
  1  8  4  0
  1 19  4  0
  2 17  1  0
  2 31  4  0
  2 34  4  0
  3  6  4  0
  3 19  4  0
  4 15  4  0
  4 23  4  0
  5 20  4  0
  5 27  4  0
  6 12  4  0
  7 13  4  0
  7 24  2  0
  7 25  4  0
  8 12  4  0
  9 15  1  0
  9 21  1  0
 10 14  4  0
 10 32  4  0
 11 20  4  0
 11 22  4  0
 11 30  1  0
 12 26  1  0
 13 14  4  0
 14 17  1  0
 15 28  4  0
 16 26  3  0
 18 21  4  0
 18 34  4  0
 19 32  1  0
 21 31  4  0
 22 29  4  0
 23 30  4  0
 25 32  4  0
 27 29  4  0
 28 33  4  0
 30 33  4  0
M  END
$$$$

 Created by Python create_sdf_string function

 34 45  0  0  0  0  0  0  0  0999 V2000
   12.9344   -5.0054   20.9157 C   0  0  0  0  0  0  0  0  0  0  0  0
    8.0006   -7.3702   16.6556 N   0  0  0  0  0  0  0  0  0  0  0  0
   10.8481   -4.2523   21.7100 C   0  0  0  0  0  0  0  0  0  0  0  0
    2.8903   -9.5620   16.2084 C   0  0  0  0  0  0  0  0  0  0  0  0
    1.0163  -12.4050   21.2963 C   0  0  0  0  0  0  0  0  0  0  0  0
   11.3431   -4.0066   22.9584 C   0  0  0  0  0  0  0  0  0  0  0  0
   10.9130   -4.0883   17.3015 C   0  0  0  0  0  0  0  0  0  0  0  0
   13.5161   -4.8158   22.1949 C   0  0  0  0  0  0  0  0  0  0  0  0
    5.0861   -8.9679   15.5038 C   0  0  0  0  0  0  0  0  0  0  0  0
   10.3185   -5.9592   19.2046 C   0  0  0  0  0  0  0  0  0  0  0  0
    1.5253  -11.1580   19.2225 C   0  0  0  0  0  0  0  0  0  0  0  0
   12.6872   -4.2993   23.1475 C   0  0  0  0  0  0  0  0  0  0  0  0
   10.0606   -5.1452   17.0002 C   0  0  0  0  0  0  0  0  0  0  0  0
    9.8268   -6.0600   17.9829 C   0  0  0  0  0  0  0  0  0  0  0  0
    4.2192   -9.6023   16.4499 C   0  0  0  0  0  0  0  0  0  0  0  0
   13.4476   -3.8350   25.3485 N   0  0  0  0  0  0  0  0  0  0  0  0
    8.9907   -7.2242   17.7201 C   0  0  0  0  0  0  0  0  0  0  0  0
    6.7670   -7.1527   14.9663 C   0  0  0  0  0  0  0  0  0  0  0  0
   11.7106   -4.6901   20.7399 C   0  0  0  0  0  0  0  0  0  0  0  0
    1.9415  -11.9033   20.3781 C   0  0  0  0  0  0  0  0  0  0  0  0
    6.2587   -8.1320   15.6990 C   0  0  0  0  0  0  0  0  0  0  0  0
    0.2012  -10.8745   19.1059 C   0  0  0  0  0  0  0  0  0  0  0  0
    2.0830  -10.0069   17.1234 N   0  0  0  0  0  0  0  0  0  0  0  0
   11.2210   -3.2388   16.3732 O   0  0  0  0  0  0  0  0  0  0  0  0
   11.3662   -3.9952   18.4944 N   0  0  0  0  0  0  0  0  0  0  0  0
   13.1161   -4.1359   24.3675 C   0  0  0  0  0  0  0  0  0  0  0  0
   -0.3047  -12.0247   21.2167 C   0  0  0  0  0  0  0  0  0  0  0  0
    4.6761  -10.2448   17.5480 N   0  0  0  0  0  0  0  0  0  0  0  0
   -0.7564  -11.2607   20.0405 C   0  0  0  0  0  0  0  0  0  0  0  0
    2.5180  -10.6702   18.2674 C   0  0  0  0  0  0  0  0  0  0  0  0
    7.0885   -8.3030   16.7672 C   0  0  0  0  0  0  0  0  0  0  0  0
   11.1235   -4.8930   19.4641 C   0  0  0  0  0  0  0  0  0  0  0  0
    3.9414  -10.7360   18.3359 C   0  0  0  0  0  0  0  0  0  0  0  0
    7.7900   -6.6484   15.5966 N   0  0  0  0  0  0  0  0  0  0  0  0
  1  8  4  0
  1 19  4  0
  1 33  4  0
  2 16  3  0
  2 17  1  0
  2 30  4  0
  2 31  4  0
  2 34  4  0
  3  6  4  0
  3 19  4  0
  4 15  4  0
  4 23  4  0
  5 20  4  0
  5 27  4  0
  6 12  4  0
  6 25  3  0
  7 16  2  0
  7 17  2  0
  7 24  2  0
  7 25  4  0
  7 33  3  0
  8 12  4  0
  9 15  1  0
  9 21  1  0
 10 14  4  0
 10 18  2  0
 10 32  4  0
 11 20  4  0
 11 22  4  0
 11 30  1  0
 12 26  1  0
 13 14  4  0
 14 17  1  0
 15 28  4  0
 17 22  2  0
 18 21  4  0
 18 34  4  0
 19 32  1  0
 21 31  4  0
 22 29  4  0
 23 30  4  0
 25 32  4  0
 27 29  4  0
 28 33  4  0
 30 33  4  0
M  END
$$$$

 Created by Python create_sdf_string function

 34 38  0  0  0  0  0  0  0  0999 V2000
   12.9868   -5.0010   20.9506 C   0  0  0  0  0  0  0  0  0  0  0  0
    7.9839   -7.3800   16.6741 N   0  0  0  0  0  0  0  0  0  0  0  0
   10.8525   -4.2355   21.7254 C   0  0  0  0  0  0  0  0  0  0  0  0
    2.9042   -9.5598   16.2329 C   0  0  0  0  0  0  0  0  0  0  0  0
    1.0339  -12.3890   21.3113 C   0  0  0  0  0  0  0  0  0  0  0  0
   11.3574   -4.0203   22.9541 C   0  0  0  0  0  0  0  0  0  0  0  0
   10.9002   -4.1030   17.2780 C   0  0  0  0  0  0  0  0  0  0  0  0
   13.5427   -4.8283   22.1735 C   0  0  0  0  0  0  0  0  0  0  0  0
    5.0880   -8.9661   15.5144 C   0  0  0  0  0  0  0  0  0  0  0  0
   10.3413   -5.9484   19.1970 C   0  0  0  0  0  0  0  0  0  0  0  0
    1.5436  -11.1604   19.2599 C   0  0  0  0  0  0  0  0  0  0  0  0
   12.6930   -4.3216   23.1460 C   0  0  0  0  0  0  0  0  0  0  0  0
   10.0700   -5.1532   17.0088 C   0  0  0  0  0  0  0  0  0  0  0  0
    9.8183   -6.0680   17.9734 C   0  0  0  0  0  0  0  0  0  0  0  0
    4.2175   -9.5983   16.4460 C   0  0  0  0  0  0  0  0  0  0  0  0
   13.4500   -3.8524   25.3422 N   0  0  0  0  0  0  0  0  0  0  0  0
    8.9956   -7.2370   17.6899 C   0  0  0  0  0  0  0  0  0  0  0  0
    6.7679   -7.1688   14.9859 C   0  0  0  0  0  0  0  0  0  0  0  0
   11.6887   -4.7034   20.7199 C   0  0  0  0  0  0  0  0  0  0  0  0
    1.9221  -11.9199   20.3731 C   0  0  0  0  0  0  0  0  0  0  0  0
    6.2528   -8.1758   15.7200 C   0  0  0  0  0  0  0  0  0  0  0  0
    0.1709  -10.8881   19.1406 C   0  0  0  0  0  0  0  0  0  0  0  0
    2.0710  -10.0360   17.1329 N   0  0  0  0  0  0  0  0  0  0  0  0
   11.2078   -3.2502   16.3905 O   0  0  0  0  0  0  0  0  0  0  0  0
   11.4085   -3.9891   18.5182 N   0  0  0  0  0  0  0  0  0  0  0  0
   13.1640   -4.1082   24.3747 C   0  0  0  0  0  0  0  0  0  0  0  0
   -0.3265  -12.0320   21.1987 C   0  0  0  0  0  0  0  0  0  0  0  0
    4.7121  -10.2292   17.5352 N   0  0  0  0  0  0  0  0  0  0  0  0
   -0.7669  -11.2772   20.0682 C   0  0  0  0  0  0  0  0  0  0  0  0
    2.5194  -10.6641   18.2698 C   0  0  0  0  0  0  0  0  0  0  0  0
    7.0730   -8.3093   16.7508 C   0  0  0  0  0  0  0  0  0  0  0  0
   11.1515   -4.8798   19.4793 C   0  0  0  0  0  0  0  0  0  0  0  0
    3.9056  -10.7516   18.3634 C   0  0  0  0  0  0  0  0  0  0  0  0
    7.8051   -6.6532   15.5779 N   0  0  0  0  0  0  0  0  0  0  0  0
  1  8  4  0
  1 19  4  0
  2 17  1  0
  2 31  4  0
  2 34  4  0
  3  6  4  0
  3 19  4  0
  4 15  4  0
  4 23  4  0
  5 20  4  0
  5 27  4  0
  6 12  4  0
  7 13  4  0
  7 24  2  0
  7 25  4  0
  8 12  4  0
  9 15  1  0
  9 21  1  0
 10 14  4  0
 10 32  4  0
 11 20  4  0
 11 22  4  0
 11 30  1  0
 12 26  1  0
 13 14  4  0
 14 17  1  0
 15 28  4  0
 16 26  3  0
 18 21  4  0
 18 34  4  0
 19 32  1  0
 21 31  4  0
 22 29  4  0
 23 30  4  0
 25 32  4  0
 27 29  4  0
 28 33  4  0
 30 33  4  0
M  END
$$$$

 Created by Python create_sdf_string function

 34 40  0  0  0  0  0  0  0  0999 V2000
   12.9724   -5.0020   20.9542 C   0  0  0  0  0  0  0  0  0  0  0  0
    7.9929   -7.3933   16.6792 N   0  0  0  0  0  0  0  0  0  0  0  0
   10.8931   -4.2335   21.7038 C   0  0  0  0  0  0  0  0  0  0  0  0
    2.8961   -9.5357   16.2098 C   0  0  0  0  0  0  0  0  0  0  0  0
   11.3928   -3.9985   22.9493 C   0  0  0  0  0  0  0  0  0  0  0  0
   10.8725   -4.1120   17.2816 C   0  0  0  0  0  0  0  0  0  0  0  0
   13.5335   -4.8594   22.1406 C   0  0  0  0  0  0  0  0  0  0  0  0
    5.0713   -8.9486   15.5081 C   0  0  0  0  0  0  0  0  0  0  0  0
   10.3254   -5.9390   19.1869 C   0  0  0  0  0  0  0  0  0  0  0  0
    1.5408  -11.1731   19.2805 C   0  0  0  0  0  0  0  0  0  0  0  0
   12.6899   -4.3257   23.1519 C   0  0  0  0  0  0  0  0  0  0  0  0
   10.0695   -5.1546   17.0198 C   0  0  0  0  0  0  0  0  0  0  0  0
    9.7968   -6.0746   17.9943 C   0  0  0  0  0  0  0  0  0  0  0  0
    4.2303   -9.6128   16.4427 C   0  0  0  0  0  0  0  0  0  0  0  0
   13.4170   -3.8566   25.3328 N   0  0  0  0  0  0  0  0  0  0  0  0
    9.0089   -7.2257   17.6748 C   0  0  0  0  0  0  0  0  0  0  0  0
    6.7581   -7.1636   14.9748 C   0  0  0  0  0  0  0  0  0  0  0  0
   11.6991   -4.7121   20.7187 C   0  0  0  0  0  0  0  0  0  0  0  0
    1.9214  -11.9056   20.3786 C   0  0  0  0  0  0  0  0  0  0  0  0
    6.2609   -8.1693   15.7320 C   0  0  0  0  0  0  0  0  0  0  0  0
    0.1522  -10.8984   19.1681 C   0  0  0  0  0  0  0  0  0  0  0  0
    2.0743  -10.0122   17.1161 N   0  0  0  0  0  0  0  0  0  0  0  0
   11.1914   -3.2858   16.3898 O   0  0  0  0  0  0  0  0  0  0  0  0
   11.3999   -4.0002   18.5049 N   0  0  0  0  0  0  0  0  0  0  0  0
   13.1467   -4.0977   24.3655 C   0  0  0  0  0  0  0  0  0  0  0  0
   -0.3175  -12.0074   21.1914 C   0  0  0  0  0  0  0  0  0  0  0  0
    4.7316  -10.2430   17.5707 N   0  0  0  0  0  0  0  0  0  0  0  0
   -0.7594  -11.2779   20.0700 C   0  0  0  0  0  0  0  0  0  0  0  0
    2.5325  -10.6891   18.2337 C   0  0  0  0  0  0  0  0  0  0  0  0
    7.0685   -8.3200   16.7680 C   0  0  0  0  0  0  0  0  0  0  0  0
   11.1216   -4.8673   19.4689 C   0  0  0  0  0  0  0  0  0  0  0  0
    3.9205  -10.7316   18.3868 C   0  0  0  0  0  0  0  0  0  0  0  0
    7.8112   -6.6449   15.5580 N   0  0  0  0  0  0  0  0  0  0  0  0
    1.0184  -12.3455   21.2768 He  0  0  0  0  0  0  0  0  0  0  0  0
  1  4  2  0
  1  7  4  0
  1 18  4  0
  2 16  1  0
  2 30  4  0
  2 33  4  0
  3  5  4  0
  3 18  4  0
  4 14  4  0
  4 22  4  0
  5 11  4  0
  6 12  4  0
  6 23  1  0
  6 24  4  0
  7 11  4  0
  8 14  1  0
  8 20  1  0
  9 13  4  0
  9 31  4  0
 10 19  4  0
 10 21  4  0
 10 29  1  0
 11 25  1  0
 12 13  4  0
 12 15  3  0
 13 16  1  0
 14 27  4  0
 15 25  3  0
 16 18  2  0
 16 27  4  0
 17 20  4  0
 17 33  4  0
 18 31  1  0
 20 30  4  0
 21 28  4  0
 22 29  4  0
 24 31  4  0
 26 28  4  0
 27 32  4  0
 29 32  4  0
M  END
$$$$

 Created by Python create_sdf_string function

 34 38  0  0  0  0  0  0  0  0999 V2000
   12.9957   -5.0187   20.9489 C   0  0  0  0  0  0  0  0  0  0  0  0
    7.9847   -7.3941   16.6722 N   0  0  0  0  0  0  0  0  0  0  0  0
   10.8858   -4.2257   21.7134 C   0  0  0  0  0  0  0  0  0  0  0  0
    2.9130   -9.5567   16.2401 C   0  0  0  0  0  0  0  0  0  0  0  0
    1.0241  -12.3375   21.2893 C   0  0  0  0  0  0  0  0  0  0  0  0
   11.3954   -4.0145   22.9401 C   0  0  0  0  0  0  0  0  0  0  0  0
   10.8843   -4.1232   17.2840 C   0  0  0  0  0  0  0  0  0  0  0  0
   13.5594   -4.8596   22.1612 C   0  0  0  0  0  0  0  0  0  0  0  0
    5.0869   -8.9635   15.5295 C   0  0  0  0  0  0  0  0  0  0  0  0
   10.3394   -5.9354   19.1933 C   0  0  0  0  0  0  0  0  0  0  0  0
    1.5395  -11.1649   19.2675 C   0  0  0  0  0  0  0  0  0  0  0  0
   12.7217   -4.3334   23.1373 C   0  0  0  0  0  0  0  0  0  0  0  0
   10.0619   -5.1599   16.9978 C   0  0  0  0  0  0  0  0  0  0  0  0
    9.8075   -6.0714   17.9637 C   0  0  0  0  0  0  0  0  0  0  0  0
    4.2267   -9.6005   16.4636 C   0  0  0  0  0  0  0  0  0  0  0  0
   13.4300   -3.8699   25.3276 N   0  0  0  0  0  0  0  0  0  0  0  0
    8.9977   -7.2412   17.6747 C   0  0  0  0  0  0  0  0  0  0  0  0
    6.7657   -7.1838   14.9868 C   0  0  0  0  0  0  0  0  0  0  0  0
   11.7040   -4.7055   20.7143 C   0  0  0  0  0  0  0  0  0  0  0  0
    1.9158  -11.9135   20.3815 C   0  0  0  0  0  0  0  0  0  0  0  0
    6.2512   -8.1845   15.7346 C   0  0  0  0  0  0  0  0  0  0  0  0
    0.1599  -10.8952   19.1576 C   0  0  0  0  0  0  0  0  0  0  0  0
    2.0849  -10.0466   17.1320 N   0  0  0  0  0  0  0  0  0  0  0  0
   11.1905   -3.2699   16.4000 O   0  0  0  0  0  0  0  0  0  0  0  0
   11.4144   -3.9883   18.5017 N   0  0  0  0  0  0  0  0  0  0  0  0
   13.1750   -4.0995   24.3659 C   0  0  0  0  0  0  0  0  0  0  0  0
   -0.3121  -12.0182   21.1839 C   0  0  0  0  0  0  0  0  0  0  0  0
    4.7258  -10.2334   17.5579 N   0  0  0  0  0  0  0  0  0  0  0  0
   -0.7614  -11.2886   20.0842 C   0  0  0  0  0  0  0  0  0  0  0  0
    2.5259  -10.6672   18.2769 C   0  0  0  0  0  0  0  0  0  0  0  0
    7.0765   -8.3131   16.7620 C   0  0  0  0  0  0  0  0  0  0  0  0
   11.1530   -4.8831   19.4745 C   0  0  0  0  0  0  0  0  0  0  0  0
    3.9103  -10.7505   18.3845 C   0  0  0  0  0  0  0  0  0  0  0  0
    7.8109   -6.6741   15.5647 N   0  0  0  0  0  0  0  0  0  0  0  0
  1  8  4  0
  1 19  4  0
  2 17  1  0
  2 31  4  0
  2 34  4  0
  3  6  4  0
  3 19  4  0
  4 15  4  0
  4 23  4  0
  5 20  4  0
  5 27  4  0
  6 12  4  0
  7 13  4  0
  7 24  1  0
  7 25  4  0
  8 12  4  0
  9 15  1  0
  9 21  1  0
 10 14  4  0
 10 32  4  0
 11 20  4  0
 11 22  4  0
 11 30  1  0
 12 26  1  0
 13 14  4  0
 14 17  1  0
 15 28  4  0
 16 26  3  0
 18 21  4  0
 18 34  4  0
 19 32  1  0
 21 31  4  0
 22 29  4  0
 23 30  4  0
 25 32  4  0
 27 29  4  0
 28 33  4  0
 30 33  4  0
M  END
$$$$

 Created by Python create_sdf_string function

 34 42  0  0  0  0  0  0  0  0999 V2000
   12.9921   -5.0240   20.9323 C   0  0  0  0  0  0  0  0  0  0  0  0
    7.9748   -7.3990   16.6686 N   0  0  0  0  0  0  0  0  0  0  0  0
   10.8931   -4.2233   21.7154 C   0  0  0  0  0  0  0  0  0  0  0  0
    2.9356   -9.5575   16.2378 C   0  0  0  0  0  0  0  0  0  0  0  0
    1.0254  -12.3455   21.2909 C   0  0  0  0  0  0  0  0  0  0  0  0
   11.3907   -4.0313   22.9466 C   0  0  0  0  0  0  0  0  0  0  0  0
   10.8856   -4.1208   17.2871 C   0  0  0  0  0  0  0  0  0  0  0  0
   13.5796   -4.8696   22.1641 C   0  0  0  0  0  0  0  0  0  0  0  0
    5.1021   -8.9633   15.5356 C   0  0  0  0  0  0  0  0  0  0  0  0
   10.3169   -5.9483   19.1986 C   0  0  0  0  0  0  0  0  0  0  0  0
    1.5339  -11.1444   19.2729 C   0  0  0  0  0  0  0  0  0  0  0  0
   12.7151   -4.3326   23.1299 C   0  0  0  0  0  0  0  0  0  0  0  0
   10.0539   -5.1338   17.0146 C   0  0  0  0  0  0  0  0  0  0  0  0
    9.8041   -6.0538   17.9760 C   0  0  0  0  0  0  0  0  0  0  0  0
    4.2097   -9.5676   16.4621 C   0  0  0  0  0  0  0  0  0  0  0  0
   13.4169   -3.8646   25.3435 N   0  0  0  0  0  0  0  0  0  0  0  0
    9.0091   -7.2370   17.6690 C   0  0  0  0  0  0  0  0  0  0  0  0
    6.7577   -7.1852   15.0051 C   0  0  0  0  0  0  0  0  0  0  0  0
   11.7112   -4.6903   20.7038 C   0  0  0  0  0  0  0  0  0  0  0  0
    1.9071  -11.9292   20.3797 C   0  0  0  0  0  0  0  0  0  0  0  0
    6.2665   -8.1941   15.7492 C   0  0  0  0  0  0  0  0  0  0  0  0
    0.1850  -10.9220   19.1473 C   0  0  0  0  0  0  0  0  0  0  0  0
    2.1045  -10.0167   17.1316 N   0  0  0  0  0  0  0  0  0  0  0  0
   11.1690   -3.2805   16.3938 O   0  0  0  0  0  0  0  0  0  0  0  0
   11.4258   -4.0038   18.5094 N   0  0  0  0  0  0  0  0  0  0  0  0
   13.1637   -4.0939   24.3971 C   0  0  0  0  0  0  0  0  0  0  0  0
   -0.3019  -12.0177   21.1853 C   0  0  0  0  0  0  0  0  0  0  0  0
    4.7279  -10.2406   17.5846 N   0  0  0  0  0  0  0  0  0  0  0  0
   -0.7789  -11.2958   20.0754 C   0  0  0  0  0  0  0  0  0  0  0  0
    2.5095  -10.6702   18.2621 C   0  0  0  0  0  0  0  0  0  0  0  0
    7.0706   -8.3340   16.7644 C   0  0  0  0  0  0  0  0  0  0  0  0
   11.1509   -4.8855   19.4589 C   0  0  0  0  0  0  0  0  0  0  0  0
    3.9148  -10.7667   18.3686 C   0  0  0  0  0  0  0  0  0  0  0  0
    7.8208   -6.6799   15.5667 N   0  0  0  0  0  0  0  0  0  0  0  0
  1  8  4  0
  1 19  4  0
  2 17  1  0
  2 31  4  0
  2 34  4  0
  3  6  4  0
  4 15  4  0
  4 23  4  0
  5 20  4  0
  5 27  4  0
  6 12  4  0
  6 19  2  0
  7 13  4  0
  7 24  1  0
  7 25  4  0
  8 12  4  0
  9 15  1  0
  9 21  1  0
 10 14  4  0
 10 32  4  0
 11 20  4  0
 11 22  4  0
 11 30  1  0
 12 26  1  0
 12 30  3  0
 13 14  4  0
 14 17  1  0
 15 28  4  0
 16 26  3  0
 18 21  4  0
 18 29  1  0
 18 34  4  0
 19 32  1  0
 21 31  4  0
 22 28  4  0
 22 29  4  0
 23 30  4  0
 25 32  4  0
 27 29  4  0
 28 33  4  0
 30 32  2  0
 30 33  4  0
M  END
$$$$

 Created by Python create_sdf_string function

 34 38  0  0  0  0  0  0  0  0999 V2000
   13.0145   -5.0279   20.9294 C   0  0  0  0  0  0  0  0  0  0  0  0
    7.9845   -7.4151   16.6740 N   0  0  0  0  0  0  0  0  0  0  0  0
   10.8918   -4.2283   21.7048 C   0  0  0  0  0  0  0  0  0  0  0  0
    2.9313   -9.5574   16.2658 C   0  0  0  0  0  0  0  0  0  0  0  0
    1.0358  -12.3583   21.3220 C   0  0  0  0  0  0  0  0  0  0  0  0
   11.4074   -4.0351   22.9346 C   0  0  0  0  0  0  0  0  0  0  0  0
   10.8907   -4.1215   17.2831 C   0  0  0  0  0  0  0  0  0  0  0  0
   13.5827   -4.8682   22.1571 C   0  0  0  0  0  0  0  0  0  0  0  0
    5.0932   -8.9750   15.5441 C   0  0  0  0  0  0  0  0  0  0  0  0
   10.3496   -5.9369   19.1879 C   0  0  0  0  0  0  0  0  0  0  0  0
    1.5382  -11.1720   19.2729 C   0  0  0  0  0  0  0  0  0  0  0  0
   12.7392   -4.3431   23.1359 C   0  0  0  0  0  0  0  0  0  0  0  0
   10.0530   -5.1518   17.0009 C   0  0  0  0  0  0  0  0  0  0  0  0
    9.8119   -6.0681   17.9656 C   0  0  0  0  0  0  0  0  0  0  0  0
    4.2379   -9.5931   16.4838 C   0  0  0  0  0  0  0  0  0  0  0  0
   13.4290   -3.8777   25.3280 N   0  0  0  0  0  0  0  0  0  0  0  0
    9.0046   -7.2396   17.6740 C   0  0  0  0  0  0  0  0  0  0  0  0
    6.7687   -7.2057   15.0076 C   0  0  0  0  0  0  0  0  0  0  0  0
   11.7165   -4.7071   20.7113 C   0  0  0  0  0  0  0  0  0  0  0  0
    1.9178  -11.9212   20.3821 C   0  0  0  0  0  0  0  0  0  0  0  0
    6.2514   -8.2042   15.7539 C   0  0  0  0  0  0  0  0  0  0  0  0
    0.1691  -10.9137   19.1605 C   0  0  0  0  0  0  0  0  0  0  0  0
    2.0958  -10.0393   17.1443 N   0  0  0  0  0  0  0  0  0  0  0  0
   11.1778   -3.2654   16.4040 O   0  0  0  0  0  0  0  0  0  0  0  0
   11.4416   -3.9990   18.4941 N   0  0  0  0  0  0  0  0  0  0  0  0
   13.1849   -4.1027   24.3715 C   0  0  0  0  0  0  0  0  0  0  0  0
   -0.3087  -12.0311   21.1903 C   0  0  0  0  0  0  0  0  0  0  0  0
    4.7274  -10.2377   17.5791 N   0  0  0  0  0  0  0  0  0  0  0  0
   -0.7653  -11.3048   20.0817 C   0  0  0  0  0  0  0  0  0  0  0  0
    2.5172  -10.6728   18.2868 C   0  0  0  0  0  0  0  0  0  0  0  0
    7.0856   -8.3314   16.7703 C   0  0  0  0  0  0  0  0  0  0  0  0
   11.1720   -4.8886   19.4690 C   0  0  0  0  0  0  0  0  0  0  0  0
    3.9008  -10.7669   18.3871 C   0  0  0  0  0  0  0  0  0  0  0  0
    7.8197   -6.6968   15.5739 N   0  0  0  0  0  0  0  0  0  0  0  0
  1  8  4  0
  1 19  4  0
  2 17  1  0
  2 31  4  0
  2 34  4  0
  3  6  4  0
  3 19  4  0
  4 15  4  0
  4 23  4  0
  5 20  4  0
  5 27  4  0
  6 12  4  0
  7 13  4  0
  7 24  1  0
  7 25  4  0
  8 12  4  0
  9 15  1  0
  9 21  1  0
 10 14  4  0
 10 32  4  0
 11 20  4  0
 11 22  4  0
 11 30  1  0
 12 26  1  0
 13 14  4  0
 14 17  1  0
 15 28  4  0
 16 26  3  0
 18 21  4  0
 18 34  4  0
 19 32  1  0
 21 31  4  0
 22 29  4  0
 23 30  4  0
 25 32  4  0
 27 29  4  0
 28 33  4  0
 30 33  4  0
M  END
$$$$

 Created by Python create_sdf_string function

 34 39  0  0  0  0  0  0  0  0999 V2000
   13.0428   -5.0227   20.9360 C   0  0  0  0  0  0  0  0  0  0  0  0
    7.9728   -7.4139   16.6678 N   0  0  0  0  0  0  0  0  0  0  0  0
   10.8809   -4.2279   21.7051 C   0  0  0  0  0  0  0  0  0  0  0  0
    2.9332   -9.5380   16.2569 C   0  0  0  0  0  0  0  0  0  0  0  0
    1.0392  -12.3447   21.3208 C   0  0  0  0  0  0  0  0  0  0  0  0
   11.3984   -4.0679   22.9089 C   0  0  0  0  0  0  0  0  0  0  0  0
   10.8645   -4.1150   17.2859 C   0  0  0  0  0  0  0  0  0  0  0  0
   13.5852   -4.8539   22.1642 C   0  0  0  0  0  0  0  0  0  0  0  0
    5.0749   -8.9788   15.5371 C   0  0  0  0  0  0  0  0  0  0  0  0
   10.3615   -5.9227   19.1820 C   0  0  0  0  0  0  0  0  0  0  0  0
    1.5373  -11.1689   19.2763 C   0  0  0  0  0  0  0  0  0  0  0  0
   12.7345   -4.3295   23.1372 C   0  0  0  0  0  0  0  0  0  0  0  0
   10.0678   -5.1355   17.0058 C   0  0  0  0  0  0  0  0  0  0  0  0
    9.8072   -6.0719   17.9562 C   0  0  0  0  0  0  0  0  0  0  0  0
    4.2300   -9.5833   16.4937 C   0  0  0  0  0  0  0  0  0  0  0  0
   13.4295   -3.8702   25.3145 N   0  0  0  0  0  0  0  0  0  0  0  0
    9.0154   -7.2451   17.6685 C   0  0  0  0  0  0  0  0  0  0  0  0
    6.7718   -7.2185   15.0043 C   0  0  0  0  0  0  0  0  0  0  0  0
   11.7058   -4.7028   20.7217 C   0  0  0  0  0  0  0  0  0  0  0  0
    1.9117  -11.9278   20.3893 C   0  0  0  0  0  0  0  0  0  0  0  0
    6.2436   -8.2252   15.7599 C   0  0  0  0  0  0  0  0  0  0  0  0
    0.1733  -10.9086   19.1680 C   0  0  0  0  0  0  0  0  0  0  0  0
    2.0938  -10.0287   17.1530 N   0  0  0  0  0  0  0  0  0  0  0  0
   11.1825   -3.2588   16.3919 O   0  0  0  0  0  0  0  0  0  0  0  0
   11.4465   -3.9976   18.4975 N   0  0  0  0  0  0  0  0  0  0  0  0
   13.1844   -4.1049   24.3679 F   0  0  0  0  0  0  0  0  0  0  0  0
   -0.3088  -12.0299   21.1815 C   0  0  0  0  0  0  0  0  0  0  0  0
    4.7226  -10.2387   17.5739 N   0  0  0  0  0  0  0  0  0  0  0  0
   -0.7634  -11.3224   20.0939 C   0  0  0  0  0  0  0  0  0  0  0  0
    2.4961  -10.6845   18.2720 C   0  0  0  0  0  0  0  0  0  0  0  0
    7.0938   -8.3301   16.7580 C   0  0  0  0  0  0  0  0  0  0  0  0
   11.1600   -4.9066   19.4798 C   0  0  0  0  0  0  0  0  0  0  0  0
    3.8952  -10.7660   18.3922 C   0  0  0  0  0  0  0  0  0  0  0  0
    7.8172   -6.6936   15.5711 N   0  0  0  0  0  0  0  0  0  0  0  0
  1  8  4  0
  1 19  4  0
  2 17  1  0
  2 31  4  0
  2 34  4  0
  3  6  4  0
  3 19  4  0
  4  8  3  0
  4 15  4  0
  4 23  4  0
  5 20  4  0
  5 27  4  0
  6 12  4  0
  7 13  4  0
  7 24  1  0
  7 25  4  0
  8 12  4  0
  9 15  1  0
  9 21  1  0
 10 14  4  0
 10 32  4  0
 11 20  4  0
 11 22  4  0
 11 30  1  0
 12 26  1  0
 13 14  4  0
 14 17  1  0
 15 28  4  0
 16 26  3  0
 18 21  4  0
 18 34  4  0
 19 32  1  0
 21 31  4  0
 22 29  4  0
 23 30  4  0
 25 32  4  0
 27 29  4  0
 28 33  4  0
 30 33  4  0
M  END
$$$$

 Created by Python create_sdf_string function

 34 38  0  0  0  0  0  0  0  0999 V2000
   13.0312   -5.0201   20.9409 C   0  0  0  0  0  0  0  0  0  0  0  0
    7.9940   -7.4176   16.6743 N   0  0  0  0  0  0  0  0  0  0  0  0
   10.8900   -4.2440   21.7067 C   0  0  0  0  0  0  0  0  0  0  0  0
    2.9264   -9.5552   16.2907 C   0  0  0  0  0  0  0  0  0  0  0  0
    1.0510  -12.3576   21.3389 C   0  0  0  0  0  0  0  0  0  0  0  0
   11.4050   -4.0564   22.9330 C   0  0  0  0  0  0  0  0  0  0  0  0
   10.8899   -4.1124   17.2791 C   0  0  0  0  0  0  0  0  0  0  0  0
   13.5967   -4.8575   22.1536 C   0  0  0  0  0  0  0  0  0  0  0  0
    5.0899   -8.9855   15.5558 C   0  0  0  0  0  0  0  0  0  0  0  0
   10.3663   -5.9395   19.1755 C   0  0  0  0  0  0  0  0  0  0  0  0
    1.5360  -11.1797   19.2851 C   0  0  0  0  0  0  0  0  0  0  0  0
   12.7441   -4.3460   23.1273 C   0  0  0  0  0  0  0  0  0  0  0  0
   10.0558   -5.1499   16.9874 C   0  0  0  0  0  0  0  0  0  0  0  0
    9.8216   -6.0728   17.9522 C   0  0  0  0  0  0  0  0  0  0  0  0
    4.2326   -9.5960   16.4986 C   0  0  0  0  0  0  0  0  0  0  0  0
   13.4323   -3.8852   25.2820 N   0  0  0  0  0  0  0  0  0  0  0  0
    9.0120   -7.2470   17.6713 C   0  0  0  0  0  0  0  0  0  0  0  0
    6.7686   -7.2360   15.0035 C   0  0  0  0  0  0  0  0  0  0  0  0
   11.7332   -4.7120   20.7180 C   0  0  0  0  0  0  0  0  0  0  0  0
    1.9190  -11.9263   20.3955 C   0  0  0  0  0  0  0  0  0  0  0  0
    6.2480   -8.2268   15.7641 C   0  0  0  0  0  0  0  0  0  0  0  0
    0.1735  -10.9136   19.1709 C   0  0  0  0  0  0  0  0  0  0  0  0
    2.0973  -10.0456   17.1628 N   0  0  0  0  0  0  0  0  0  0  0  0
   11.1796   -3.2482   16.4023 O   0  0  0  0  0  0  0  0  0  0  0  0
   11.4535   -3.9889   18.4897 N   0  0  0  0  0  0  0  0  0  0  0  0
   13.1879   -4.1123   24.3254 C   0  0  0  0  0  0  0  0  0  0  0  0
   -0.3020  -12.0460   21.1967 C   0  0  0  0  0  0  0  0  0  0  0  0
    4.7141  -10.2418   17.5887 N   0  0  0  0  0  0  0  0  0  0  0  0
   -0.7496  -11.3208   20.0879 C   0  0  0  0  0  0  0  0  0  0  0  0
    2.5054  -10.6875   18.3096 C   0  0  0  0  0  0  0  0  0  0  0  0
    7.0953   -8.3370   16.7749 C   0  0  0  0  0  0  0  0  0  0  0  0
   11.1887   -4.8887   19.4716 C   0  0  0  0  0  0  0  0  0  0  0  0
    3.8928  -10.7719   18.3986 C   0  0  0  0  0  0  0  0  0  0  0  0
    7.8163   -6.7164   15.5738 N   0  0  0  0  0  0  0  0  0  0  0  0
  1  8  4  0
  1 19  4  0
  2 17  1  0
  2 31  4  0
  2 34  4  0
  3  6  4  0
  3 19  4  0
  4 15  4  0
  4 23  4  0
  5 20  4  0
  5 27  4  0
  6 12  4  0
  7 13  4  0
  7 24  1  0
  7 25  4  0
  8 12  4  0
  9 15  1  0
  9 21  1  0
 10 14  4  0
 10 32  4  0
 11 20  4  0
 11 22  4  0
 11 30  1  0
 12 26  1  0
 13 14  4  0
 14 17  1  0
 15 28  4  0
 16 26  3  0
 18 21  4  0
 18 34  4  0
 19 32  1  0
 21 31  4  0
 22 29  4  0
 23 30  4  0
 25 32  4  0
 27 29  4  0
 28 33  4  0
 30 33  4  0
M  END
$$$$

 Created by Python create_sdf_string function

 34 41  0  0  0  0  0  0  0  0999 V2000
   13.0146   -5.0086   20.9462 C   0  0  0  0  0  0  0  0  0  0  0  0
    7.9923   -7.4124   16.6723 N   0  0  0  0  0  0  0  0  0  0  0  0
   10.8895   -4.2471   21.7081 C   0  0  0  0  0  0  0  0  0  0  0  0
    2.9187   -9.5514   16.2950 C   0  0  0  0  0  0  0  0  0  0  0  0
    1.0558  -12.3483   21.3335 C   0  0  0  0  0  0  0  0  0  0  0  0
   11.4093   -4.0578   22.9315 C   0  0  0  0  0  0  0  0  0  0  0  0
   10.8888   -4.1141   17.2705 C   0  0  0  0  0  0  0  0  0  0  0  0
   13.5899   -4.8563   22.1630 C   0  0  0  0  0  0  0  0  0  0  0  0
    5.0808   -8.9713   15.5393 C   0  0  0  0  0  0  0  0  0  0  0  0
   10.3657   -5.9311   19.1730 C   0  0  0  0  0  0  0  0  0  0  0  0
    1.5450  -11.1812   19.2829 C   0  0  0  0  0  0  0  0  0  0  0  0
   12.7444   -4.3460   23.1262 C   0  0  0  0  0  0  0  0  0  0  0  0
   10.0612   -5.1534   16.9805 C   0  0  0  0  0  0  0  0  0  0  0  0
    9.8304   -6.0798   17.9421 C   0  0  0  0  0  0  0  0  0  0  0  0
    4.2314   -9.5844   16.4909 C   0  0  0  0  0  0  0  0  0  0  0  0
   13.4220   -3.8789   25.2753 N   0  0  0  0  0  0  0  0  0  0  0  0
    9.0111   -7.2411   17.6667 C   0  0  0  0  0  0  0  0  0  0  0  0
    6.7681   -7.2393   15.0008 C   0  0  0  0  0  0  0  0  0  0  0  0
   11.7212   -4.7014   20.7160 C   0  0  0  0  0  0  0  0  0  0  0  0
    1.9172  -11.9268   20.3959 C   0  0  0  0  0  0  0  0  0  0  0  0
    6.2598   -8.2343   15.7523 C   0  0  0  0  0  0  0  0  0  0  0  0
    0.1761  -10.9146   19.1828 C   0  0  0  0  0  0  0  0  0  0  0  0
    2.0978  -10.0551   17.1714 N   0  0  0  0  0  0  0  0  0  0  0  0
   11.1766   -3.2538   16.3937 O   0  0  0  0  0  0  0  0  0  0  0  0
   11.4543   -3.9974   18.4929 N   0  0  0  0  0  0  0  0  0  0  0  0
   13.1990   -4.1003   24.3332 C   0  0  0  0  0  0  0  0  0  0  0  0
   -0.2990  -12.0607   21.1913 C   0  0  0  0  0  0  0  0  0  0  0  0
    4.7124  -10.2494   17.5962 N   0  0  0  0  0  0  0  0  0  0  0  0
   -0.7406  -11.3134   20.0822 C   0  0  0  0  0  0  0  0  0  0  0  0
    2.5009  -10.6873   18.3105 C   0  0  0  0  0  0  0  0  0  0  0  0
    7.0935   -8.3382   16.7776 C   0  0  0  0  0  0  0  0  0  0  0  0
   11.1912   -4.8972   19.4831 C   0  0  0  0  0  0  0  0  0  0  0  0
    3.8959  -10.7645   18.3944 C   0  0  0  0  0  0  0  0  0  0  0  0
    7.8055   -6.7179   15.5731 N   0  0  0  0  0  0  0  0  0  0  0  0
  1  8  4  0
  1 19  4  0
  1 23  3  0
  2 17  1  0
  2 31  4  0
  2 34  4  0
  3  6  4  0
  3 19  4  0
  4 15  4  0
  4 23  4  0
  5 20  4  0
  5 27  4  0
  6 12  4  0
  7 13  4  0
  7 20  2  0
  7 24  1  0
  7 25  4  0
  8 10  4  0
  8 12  4  0
  9 15  1  0
  9 21  1  0
 10 14  4  0
 10 32  4  0
 11 20  4  0
 11 22  4  0
 11 30  1  0
 12 26  1  0
 13 14  4  0
 14 17  1  0
 15 28  4  0
 16 26  3  0
 18 21  4  0
 18 34  4  0
 19 32  1  0
 21 31  4  0
 22 29  4  0
 23 30  4  0
 25 32  4  0
 27 29  4  0
 28 33  4  0
 30 33  4  0
M  END
$$$$

 Created by Python create_sdf_string function

 34 38  0  0  0  0  0  0  0  0999 V2000
   13.0311   -5.0160   20.9371 C   0  0  0  0  0  0  0  0  0  0  0  0
    7.9957   -7.4218   16.6727 N   0  0  0  0  0  0  0  0  0  0  0  0
   10.8947   -4.2512   21.7071 C   0  0  0  0  0  0  0  0  0  0  0  0
    2.9234   -9.5633   16.3139 C   0  0  0  0  0  0  0  0  0  0  0  0
    1.0596  -12.3626   21.3486 C   0  0  0  0  0  0  0  0  0  0  0  0
   11.4132   -4.0565   22.9376 C   0  0  0  0  0  0  0  0  0  0  0  0
   10.8991   -4.1206   17.2723 C   0  0  0  0  0  0  0  0  0  0  0  0
   13.5918   -4.8550   22.1505 C   0  0  0  0  0  0  0  0  0  0  0  0
    5.0862   -8.9883   15.5623 C   0  0  0  0  0  0  0  0  0  0  0  0
   10.3760   -5.9425   19.1673 C   0  0  0  0  0  0  0  0  0  0  0  0
    1.5453  -11.1823   19.2961 C   0  0  0  0  0  0  0  0  0  0  0  0
   12.7472   -4.3470   23.1233 C   0  0  0  0  0  0  0  0  0  0  0  0
   10.0668   -5.1596   16.9753 C   0  0  0  0  0  0  0  0  0  0  0  0
    9.8328   -6.0808   17.9437 C   0  0  0  0  0  0  0  0  0  0  0  0
    4.2338   -9.5998   16.5112 C   0  0  0  0  0  0  0  0  0  0  0  0
   13.4428   -3.8841   25.2823 N   0  0  0  0  0  0  0  0  0  0  0  0
    9.0111   -7.2491   17.6705 C   0  0  0  0  0  0  0  0  0  0  0  0
    6.7696   -7.2543   15.0013 C   0  0  0  0  0  0  0  0  0  0  0  0
   11.7370   -4.7152   20.7053 C   0  0  0  0  0  0  0  0  0  0  0  0
    1.9277  -11.9253   20.4018 C   0  0  0  0  0  0  0  0  0  0  0  0
    6.2536   -8.2344   15.7678 C   0  0  0  0  0  0  0  0  0  0  0  0
    0.1822  -10.9173   19.1806 C   0  0  0  0  0  0  0  0  0  0  0  0
    2.0955  -10.0606   17.1844 N   0  0  0  0  0  0  0  0  0  0  0  0
   11.1790   -3.2495   16.4038 O   0  0  0  0  0  0  0  0  0  0  0  0
   11.4522   -3.9946   18.4801 N   0  0  0  0  0  0  0  0  0  0  0  0
   13.2083   -4.1052   24.3479 C   0  0  0  0  0  0  0  0  0  0  0  0
   -0.2969  -12.0661   21.1991 C   0  0  0  0  0  0  0  0  0  0  0  0
    4.7151  -10.2458   17.6030 N   0  0  0  0  0  0  0  0  0  0  0  0
   -0.7404  -11.3254   20.0942 C   0  0  0  0  0  0  0  0  0  0  0  0
    2.5092  -10.6937   18.3256 C   0  0  0  0  0  0  0  0  0  0  0  0
    7.0941   -8.3418   16.7821 C   0  0  0  0  0  0  0  0  0  0  0  0
   11.1947   -4.8913   19.4654 C   0  0  0  0  0  0  0  0  0  0  0  0
    3.8967  -10.7717   18.4103 C   0  0  0  0  0  0  0  0  0  0  0  0
    7.8142   -6.7317   15.5698 N   0  0  0  0  0  0  0  0  0  0  0  0
  1  8  4  0
  1 19  4  0
  2 17  1  0
  2 31  4  0
  2 34  4  0
  3  6  4  0
  3 19  4  0
  4 15  4  0
  4 23  4  0
  5 20  4  0
  5 27  4  0
  6 12  4  0
  7 13  4  0
  7 24  1  0
  7 25  4  0
  8 12  4  0
  9 15  1  0
  9 21  1  0
 10 14  4  0
 10 32  4  0
 11 20  4  0
 11 22  4  0
 11 30  1  0
 12 26  1  0
 13 14  4  0
 14 17  1  0
 15 28  4  0
 16 26  3  0
 18 21  4  0
 18 34  4  0
 19 32  1  0
 21 31  4  0
 22 29  4  0
 23 30  4  0
 25 32  4  0
 27 29  4  0
 28 33  4  0
 30 33  4  0
M  END
$$$$

 Created by Python create_sdf_string function

 34 38  0  0  0  0  0  0  0  0999 V2000
   13.0366   -5.0181   20.9380 C   0  0  0  0  0  0  0  0  0  0  0  0
    7.9969   -7.4194   16.6708 N   0  0  0  0  0  0  0  0  0  0  0  0
   10.8915   -4.2526   21.7051 C   0  0  0  0  0  0  0  0  0  0  0  0
    2.9269   -9.5596   16.3117 C   0  0  0  0  0  0  0  0  0  0  0  0
    1.0583  -12.3632   21.3523 C   0  0  0  0  0  0  0  0  0  0  0  0
   11.4133   -4.0587   22.9302 C   0  0  0  0  0  0  0  0  0  0  0  0
   10.9013   -4.1238   17.2748 C   0  0  0  0  0  0  0  0  0  0  0  0
   13.5890   -4.8548   22.1538 C   0  0  0  0  0  0  0  0  0  0  0  0
    5.0857   -8.9903   15.5600 C   0  0  0  0  0  0  0  0  0  0  0  0
   10.3740   -5.9436   19.1702 C   0  0  0  0  0  0  0  0  0  0  0  0
    1.5426  -11.1830   19.2979 C   0  0  0  0  0  0  0  0  0  0  0  0
   12.7462   -4.3486   23.1215 C   0  0  0  0  0  0  0  0  0  0  0  0
   10.0685   -5.1654   16.9769 C   0  0  0  0  0  0  0  0  0  0  0  0
    9.8323   -6.0772   17.9449 C   0  0  0  0  0  0  0  0  0  0  0  0
    4.2338   -9.5973   16.5103 C   0  0  0  0  0  0  0  0  0  0  0  0
   13.4448   -3.8865   25.2832 N   0  0  0  0  0  0  0  0  0  0  0  0
    9.0133   -7.2463   17.6731 C   0  0  0  0  0  0  0  0  0  0  0  0
    6.7656   -7.2526   15.0007 C   0  0  0  0  0  0  0  0  0  0  0  0
   11.7383   -4.7191   20.7044 C   0  0  0  0  0  0  0  0  0  0  0  0
    1.9285  -11.9261   20.4076 C   0  0  0  0  0  0  0  0  0  0  0  0
    6.2541   -8.2323   15.7687 C   0  0  0  0  0  0  0  0  0  0  0  0
    0.1777  -10.9240   19.1775 C   0  0  0  0  0  0  0  0  0  0  0  0
    2.0994  -10.0584   17.1835 N   0  0  0  0  0  0  0  0  0  0  0  0
   11.1767   -3.2446   16.4074 O   0  0  0  0  0  0  0  0  0  0  0  0
   11.4550   -3.9928   18.4797 N   0  0  0  0  0  0  0  0  0  0  0  0
   13.2085   -4.1085   24.3479 C   0  0  0  0  0  0  0  0  0  0  0  0
   -0.3030  -12.0691   21.1980 C   0  0  0  0  0  0  0  0  0  0  0  0
    4.7146  -10.2397   17.6040 N   0  0  0  0  0  0  0  0  0  0  0  0
   -0.7393  -11.3220   20.0962 C   0  0  0  0  0  0  0  0  0  0  0  0
    2.5077  -10.6860   18.3264 C   0  0  0  0  0  0  0  0  0  0  0  0
    7.0960   -8.3362   16.7785 C   0  0  0  0  0  0  0  0  0  0  0  0
   11.1892   -4.8906   19.4686 C   0  0  0  0  0  0  0  0  0  0  0  0
    3.8927  -10.7713   18.4071 C   0  0  0  0  0  0  0  0  0  0  0  0
    7.8121   -6.7303   15.5652 N   0  0  0  0  0  0  0  0  0  0  0  0
  1  8  4  0
  1 19  4  0
  2 17  1  0
  2 31  4  0
  2 34  4  0
  3  6  4  0
  3 19  4  0
  4 15  4  0
  4 23  4  0
  5 20  4  0
  5 27  4  0
  6 12  4  0
  7 13  4  0
  7 24  1  0
  7 25  4  0
  8 12  4  0
  9 15  1  0
  9 21  1  0
 10 14  4  0
 10 32  4  0
 11 20  4  0
 11 22  4  0
 11 30  1  0
 12 26  1  0
 13 14  4  0
 14 17  1  0
 15 28  4  0
 16 26  3  0
 18 21  4  0
 18 34  4  0
 19 32  1  0
 21 31  4  0
 22 29  4  0
 23 30  4  0
 25 32  4  0
 27 29  4  0
 28 33  4  0
 30 33  4  0
M  END
$$$$

 Created by Python create_sdf_string function

 34 38  0  0  0  0  0  0  0  0999 V2000
   13.0446   -5.0229   20.9272 C   0  0  0  0  0  0  0  0  0  0  0  0
    8.0011   -7.4270   16.6752 N   0  0  0  0  0  0  0  0  0  0  0  0
   10.9051   -4.2617   21.7023 C   0  0  0  0  0  0  0  0  0  0  0  0
    2.9292   -9.5716   16.3303 C   0  0  0  0  0  0  0  0  0  0  0  0
    1.0674  -12.3737   21.3636 C   0  0  0  0  0  0  0  0  0  0  0  0
   11.4213   -4.0629   22.9288 C   0  0  0  0  0  0  0  0  0  0  0  0
   10.9039   -4.1270   17.2701 C   0  0  0  0  0  0  0  0  0  0  0  0
   13.6022   -4.8594   22.1423 C   0  0  0  0  0  0  0  0  0  0  0  0
    5.0905   -8.9988   15.5779 C   0  0  0  0  0  0  0  0  0  0  0  0
   10.3891   -5.9446   19.1632 C   0  0  0  0  0  0  0  0  0  0  0  0
    1.5448  -11.1874   19.3088 C   0  0  0  0  0  0  0  0  0  0  0  0
   12.7576   -4.3529   23.1169 C   0  0  0  0  0  0  0  0  0  0  0  0
   10.0724   -5.1692   16.9751 C   0  0  0  0  0  0  0  0  0  0  0  0
    9.8394   -6.0844   17.9462 C   0  0  0  0  0  0  0  0  0  0  0  0
    4.2354   -9.6064   16.5274 C   0  0  0  0  0  0  0  0  0  0  0  0
   13.4593   -3.8955   25.2746 N   0  0  0  0  0  0  0  0  0  0  0  0
    9.0150   -7.2524   17.6758 C   0  0  0  0  0  0  0  0  0  0  0  0
    6.7694   -7.2655   15.0031 C   0  0  0  0  0  0  0  0  0  0  0  0
   11.7480   -4.7206   20.7008 C   0  0  0  0  0  0  0  0  0  0  0  0
    1.9307  -11.9258   20.4169 C   0  0  0  0  0  0  0  0  0  0  0  0
    6.2530   -8.2399   15.7778 C   0  0  0  0  0  0  0  0  0  0  0  0
    0.1842  -10.9264   19.1821 C   0  0  0  0  0  0  0  0  0  0  0  0
    2.1037  -10.0653   17.1986 N   0  0  0  0  0  0  0  0  0  0  0  0
   11.1791   -3.2465   16.4108 O   0  0  0  0  0  0  0  0  0  0  0  0
   11.4617   -3.9988   18.4811 N   0  0  0  0  0  0  0  0  0  0  0  0
   13.2196   -4.1149   24.3410 C   0  0  0  0  0  0  0  0  0  0  0  0
   -0.2965  -12.0778   21.2102 C   0  0  0  0  0  0  0  0  0  0  0  0
    4.7176  -10.2449   17.6173 N   0  0  0  0  0  0  0  0  0  0  0  0
   -0.7349  -11.3324   20.0999 C   0  0  0  0  0  0  0  0  0  0  0  0
    2.5122  -10.6994   18.3424 C   0  0  0  0  0  0  0  0  0  0  0  0
    7.0996   -8.3387   16.7891 C   0  0  0  0  0  0  0  0  0  0  0  0
   11.2040   -4.8947   19.4573 C   0  0  0  0  0  0  0  0  0  0  0  0
    3.9002  -10.7749   18.4234 C   0  0  0  0  0  0  0  0  0  0  0  0
    7.8174   -6.7463   15.5655 N   0  0  0  0  0  0  0  0  0  0  0  0
  1  8  4  0
  1 19  4  0
  2 17  1  0
  2 31  4  0
  2 34  4  0
  3  6  4  0
  3 19  4  0
  4 15  4  0
  4 23  4  0
  5 20  4  0
  5 27  4  0
  6 12  4  0
  7 13  4  0
  7 24  1  0
  7 25  4  0
  8 12  4  0
  9 15  1  0
  9 21  1  0
 10 14  4  0
 10 32  4  0
 11 20  4  0
 11 22  4  0
 11 30  1  0
 12 26  1  0
 13 14  4  0
 14 17  1  0
 15 28  4  0
 16 26  3  0
 18 21  4  0
 18 34  4  0
 19 32  1  0
 21 31  4  0
 22 29  4  0
 23 30  4  0
 25 32  4  0
 27 29  4  0
 28 33  4  0
 30 33  4  0
M  END
$$$$

 Created by Python create_sdf_string function

 34 38  0  0  0  0  0  0  0  0999 V2000
   13.0446   -5.0229   20.9272 C   0  0  0  0  0  0  0  0  0  0  0  0
    8.0011   -7.4270   16.6752 N   0  0  0  0  0  0  0  0  0  0  0  0
   10.9051   -4.2617   21.7023 C   0  0  0  0  0  0  0  0  0  0  0  0
    2.9292   -9.5716   16.3303 C   0  0  0  0  0  0  0  0  0  0  0  0
    1.0674  -12.3737   21.3636 C   0  0  0  0  0  0  0  0  0  0  0  0
   11.4213   -4.0629   22.9288 C   0  0  0  0  0  0  0  0  0  0  0  0
   10.9039   -4.1270   17.2701 C   0  0  0  0  0  0  0  0  0  0  0  0
   13.6022   -4.8594   22.1423 C   0  0  0  0  0  0  0  0  0  0  0  0
    5.0905   -8.9988   15.5779 C   0  0  0  0  0  0  0  0  0  0  0  0
   10.3891   -5.9446   19.1632 C   0  0  0  0  0  0  0  0  0  0  0  0
    1.5448  -11.1874   19.3088 C   0  0  0  0  0  0  0  0  0  0  0  0
   12.7576   -4.3529   23.1169 C   0  0  0  0  0  0  0  0  0  0  0  0
   10.0724   -5.1692   16.9751 C   0  0  0  0  0  0  0  0  0  0  0  0
    9.8394   -6.0844   17.9462 C   0  0  0  0  0  0  0  0  0  0  0  0
    4.2354   -9.6064   16.5274 C   0  0  0  0  0  0  0  0  0  0  0  0
   13.4593   -3.8955   25.2746 N   0  0  0  0  0  0  0  0  0  0  0  0
    9.0150   -7.2524   17.6758 C   0  0  0  0  0  0  0  0  0  0  0  0
    6.7694   -7.2655   15.0031 C   0  0  0  0  0  0  0  0  0  0  0  0
   11.7480   -4.7206   20.7008 C   0  0  0  0  0  0  0  0  0  0  0  0
    1.9307  -11.9258   20.4169 C   0  0  0  0  0  0  0  0  0  0  0  0
    6.2530   -8.2399   15.7778 C   0  0  0  0  0  0  0  0  0  0  0  0
    0.1842  -10.9264   19.1821 C   0  0  0  0  0  0  0  0  0  0  0  0
    2.1037  -10.0653   17.1986 N   0  0  0  0  0  0  0  0  0  0  0  0
   11.1791   -3.2465   16.4108 O   0  0  0  0  0  0  0  0  0  0  0  0
   11.4617   -3.9988   18.4811 N   0  0  0  0  0  0  0  0  0  0  0  0
   13.2196   -4.1149   24.3410 C   0  0  0  0  0  0  0  0  0  0  0  0
   -0.2965  -12.0778   21.2102 C   0  0  0  0  0  0  0  0  0  0  0  0
    4.7176  -10.2449   17.6173 N   0  0  0  0  0  0  0  0  0  0  0  0
   -0.7349  -11.3324   20.0999 C   0  0  0  0  0  0  0  0  0  0  0  0
    2.5122  -10.6994   18.3424 C   0  0  0  0  0  0  0  0  0  0  0  0
    7.0996   -8.3387   16.7891 C   0  0  0  0  0  0  0  0  0  0  0  0
   11.2040   -4.8947   19.4573 C   0  0  0  0  0  0  0  0  0  0  0  0
    3.9002  -10.7749   18.4234 C   0  0  0  0  0  0  0  0  0  0  0  0
    7.8174   -6.7463   15.5655 N   0  0  0  0  0  0  0  0  0  0  0  0
  1  8  4  0
  1 19  4  0
  2 17  1  0
  2 31  4  0
  2 34  4  0
  3  6  4  0
  3 19  4  0
  4 15  4  0
  4 23  4  0
  5 20  4  0
  5 27  4  0
  6 12  4  0
  7 13  4  0
  7 24  1  0
  7 25  4  0
  8 12  4  0
  9 15  1  0
  9 21  1  0
 10 14  4  0
 10 32  4  0
 11 20  4  0
 11 22  4  0
 11 30  1  0
 12 26  1  0
 13 14  4  0
 14 17  1  0
 15 28  4  0
 16 26  3  0
 18 21  4  0
 18 34  4  0
 19 32  1  0
 21 31  4  0
 22 29  4  0
 23 30  4  0
 25 32  4  0
 27 29  4  0
 28 33  4  0
 30 33  4  0
M  END
$$$$

 Created by Python create_sdf_string function

 34 59  0  0  0  0  0  0  0  0999 V2000
   13.1141   -4.9025   20.5257 N   0  0  0  0  0  0  0  0  0  0  0  0
    8.1395   -7.1621   17.3340 N   0  0  0  0  0  0  0  0  0  0  0  0
    8.6787   -9.9038   17.0759 N   0  0  0  0  0  0  0  0  0  0  0  0
    0.9847  -12.3073   21.5707 C   0  0  0  0  0  0  0  0  0  0  0  0
    7.2032   -7.9304   15.3751 O   0  0  0  0  0  0  0  0  0  0  0  0
   10.8127   -5.9393   19.2096 C   0  0  0  0  0  0  0  0  0  0  0  0
    0.8622  -10.8102   18.8882 C   0  0  0  0  0  0  0  0  0  0  0  0
    7.8213   -7.5142   19.4256 P   0  0  0  0  0  0  0  0  0  0  0  0
    8.7811   -7.0735   18.0551 F   0  0  0  0  0  0  0  0  0  0  0  0
    7.5857   -8.7499   18.7454 P   0  0  0  0  0  0  0  0  0  0  0  0
    1.6183  -11.3467   20.2774 C   0  0  0  0  0  0  0  0  0  0  0  0
    2.5912  -10.4701   17.3022 F   0  0  0  0  0  0  0  0  0  0  0  0
   10.5564   -3.6661   16.8207 Cl  0  0  0  0  0  0  0  0  0  0  0  0
   11.4806   -3.7227   18.4641 O   0  0  0  0  0  0  0  0  0  0  0  0
    8.2197   -7.5459   17.3465 O   0  0  0  0  0  0  0  0  0  0  0  0
   -0.5334  -11.6925   20.8708 C   0  0  0  0  0  0  0  0  0  0  0  0
    6.5020   -8.9405   16.5973 F   0  0  0  0  0  0  0  0  0  0  0  0
    2.0908  -10.7417   18.6031 C   0  0  0  0  0  0  0  0  0  0  0  0
   11.6046   -5.2367   19.6376 C   0  0  0  0  0  0  0  0  0  0  0  0
    3.9958  -10.8783   18.7143 O   0  0  0  0  0  0  0  0  0  0  0  0
    7.8153   -6.6503   14.9217 N   0  0  0  0  0  0  0  0  0  0  0  0
   11.9466   -4.4349   22.0045 He  0  0  0  0  0  0  0  0  0  0  0  0
    7.1647  -10.0078   16.1556 He  0  0  0  0  0  0  0  0  0  0  0  0
   11.0505   -3.7023   17.1388 He  0  0  0  0  0  0  0  0  0  0  0  0
    6.5314   -6.5124   15.9329 He  0  0  0  0  0  0  0  0  0  0  0  0
    7.0020   -9.8673   17.3405 He  0  0  0  0  0  0  0  0  0  0  0  0
    9.8476   -4.9006   16.3961 He  0  0  0  0  0  0  0  0  0  0  0  0
    9.9926   -5.5631   18.0627 He  0  0  0  0  0  0  0  0  0  0  0  0
    9.2718   -8.9526   18.0548 He  0  0  0  0  0  0  0  0  0  0  0  0
   11.6083   -4.8957   20.6226 He  0  0  0  0  0  0  0  0  0  0  0  0
    7.2657   -8.0626   17.9964 He  0  0  0  0  0  0  0  0  0  0  0  0
    0.2453  -11.5719   19.2339 He  0  0  0  0  0  0  0  0  0  0  0  0
   -1.4560  -11.7558   19.8092 He  0  0  0  0  0  0  0  0  0  0  0  0
    5.8172   -7.2572   15.9517 He  0  0  0  0  0  0  0  0  0  0  0  0
  1  3  4  0
  1  4  1  0
  1 10  3  0
  1 15  3  0
  1 21  2  0
  2  5  2  0
  2  8  3  0
  2  9  1  0
  2 10  2  0
  2 17  3  0
  3  4  2  0
  3  8  2  0
  3 18  3  0
  3 21  1  0
  4  6  4  0
  4  8  1  0
  4  9  3  0
  4 11  4  0
  4 16  4  0
  4 18  2  0
  5  8  2  0
  5  9  2  0
  5 10  2  0
  5 12  2  0
  5 14  1  0
  5 17  1  0
  5 20  3  0
  6  9  3  0
  6 10  1  0
  6 19  4  0
  7 10  3  0
  7 15  2  0
  7 16  2  0
  7 18  1  0
  8 13  3  0
  8 15  1  0
  8 16  1  0
  8 18  2  0
  8 20  3  0
  8 21  4  0
  9 16  4  0
 10 12  3  0
 10 15  4  0
 10 17  4  0
 10 18  4  0
 10 20  3  0
 10 21  3  0
 11 12  4  0
 11 20  2  0
 12 18  4  0
 13 18  2  0
 14 15  1  0
 14 17  2  0
 14 19  4  0
 15 19  1  0
 16 17  3  0
 16 19  1  0
 16 21  3  0
 18 20  2  0
M  END
$$$$

 Created by Python create_sdf_string function

 34 23  0  0  0  0  0  0  0  0999 V2000
   13.2058   -4.9717   20.8402 O   0  0  0  0  0  0  0  0  0  0  0  0
    8.0598   -6.8612   17.1691 N   0  0  0  0  0  0  0  0  0  0  0  0
   11.5505   -4.6333   21.9559 O   0  0  0  0  0  0  0  0  0  0  0  0
    8.2197   -8.9336   16.8049 F   0  0  0  0  0  0  0  0  0  0  0  0
    0.9426  -11.9598   21.2791 C   0  0  0  0  0  0  0  0  0  0  0  0
    6.4451   -9.4563   16.3135 F   0  0  0  0  0  0  0  0  0  0  0  0
   10.9401   -3.7778   17.3915 C   0  0  0  0  0  0  0  0  0  0  0  0
    6.9689   -7.8855   15.6521 F   0  0  0  0  0  0  0  0  0  0  0  0
    6.7994   -6.7316   15.8085 F   0  0  0  0  0  0  0  0  0  0  0  0
   10.6022   -5.7921   19.1905 C   0  0  0  0  0  0  0  0  0  0  0  0
    1.3376  -11.1370   18.9910 C   0  0  0  0  0  0  0  0  0  0  0  0
    5.3197   -9.5546   17.3019 C   0  0  0  0  0  0  0  0  0  0  0  0
   10.0053   -4.7786   17.0610 C   0  0  0  0  0  0  0  0  0  0  0  0
    9.8489   -5.7277   17.9680 C   0  0  0  0  0  0  0  0  0  0  0  0
    7.9803   -7.5756   18.6799 F   0  0  0  0  0  0  0  0  0  0  0  0
    9.0858   -8.3698   18.0118 F   0  0  0  0  0  0  0  0  0  0  0  0
    8.8180   -6.7494   17.8328 C   0  0  0  0  0  0  0  0  0  0  0  0
    6.8097   -8.4399   18.1292 F   0  0  0  0  0  0  0  0  0  0  0  0
   12.1057   -4.7621   20.8060 C   0  0  0  0  0  0  0  0  0  0  0  0
    1.7508  -11.6269   20.2495 C   0  0  0  0  0  0  0  0  0  0  0  0
    6.6859   -8.1009   17.8098 F   0  0  0  0  0  0  0  0  0  0  0  0
    0.0045  -11.2325   18.8867 C   0  0  0  0  0  0  0  0  0  0  0  0
    2.8452  -10.0869   17.5254 N   0  0  0  0  0  0  0  0  0  0  0  0
   11.0338   -3.0650   16.4937 F   0  0  0  0  0  0  0  0  0  0  0  0
   11.6806   -3.8169   18.6228 C   0  0  0  0  0  0  0  0  0  0  0  0
    7.8743   -7.4694   16.9952 C   0  0  0  0  0  0  0  0  0  0  0  0
   -0.3690  -12.0240   20.9878 C   0  0  0  0  0  0  0  0  0  0  0  0
    5.5958   -8.9842   16.8337 C   0  0  0  0  0  0  0  0  0  0  0  0
   -0.8724  -11.6959   19.8376 C   0  0  0  0  0  0  0  0  0  0  0  0
    2.5438  -10.6884   18.3293 C   0  0  0  0  0  0  0  0  0  0  0  0
    5.8165   -7.5242   16.1600 F   0  0  0  0  0  0  0  0  0  0  0  0
   11.4867   -4.7550   19.5891 C   0  0  0  0  0  0  0  0  0  0  0  0
    3.8499  -10.7137   18.7342 O   0  0  0  0  0  0  0  0  0  0  0  0
    7.8739   -6.4610   15.1995 F   0  0  0  0  0  0  0  0  0  0  0  0
  1 19  1  0
  2 17  1  0
  3 19  1  0
  5 20  4  0
  5 27  4  0
  7 13  4  0
  7 24  1  0
  7 25  4  0
  8  9  1  0
  9 34  1  0
 10 14  4  0
 10 32  4  0
 11 20  4  0
 11 22  4  0
 11 30  1  0
 13 14  4  0
 14 17  1  0
 19 32  1  0
 22 29  4  0
 23 30  1  0
 25 32  4  0
 27 29  4  0
 30 33  2  0
M  END
$$$$

 Created by Python create_sdf_string function

 34 88  0  0  0  0  0  0  0  0999 V2000
   14.0656   -5.0447   20.8057 O   0  0  0  0  0  0  0  0  0  0  0  0
   11.9110   -4.8603   22.0427 O   0  0  0  0  0  0  0  0  0  0  0  0
    9.2527   -7.5012   16.7112 S   0  0  0  0  0  0  0  0  0  0  0  0
    4.6247   -9.4418   16.7194 C   0  0  0  0  0  0  0  0  0  0  0  0
   10.7602   -3.6592   17.9424 O   0  0  0  0  0  0  0  0  0  0  0  0
    7.8308   -8.3369   16.3720 F   0  0  0  0  0  0  0  0  0  0  0  0
   10.6879   -5.1624   19.8994 C   0  0  0  0  0  0  0  0  0  0  0  0
    0.5842  -10.5875   19.0706 C   0  0  0  0  0  0  0  0  0  0  0  0
   10.1498   -5.2183   17.0664 C   0  0  0  0  0  0  0  0  0  0  0  0
   10.0014   -6.4290   18.2781 C   0  0  0  0  0  0  0  0  0  0  0  0
    9.4057   -6.6644   16.1371 O   0  0  0  0  0  0  0  0  0  0  0  0
    9.2299   -6.9327   17.8949 C   0  0  0  0  0  0  0  0  0  0  0  0
    6.5974   -9.8651   16.0520 C   0  0  0  0  0  0  0  0  0  0  0  0
   11.6579   -4.7939   20.1550 C   0  0  0  0  0  0  0  0  0  0  0  0
    2.4296  -11.6268   20.5378 C   0  0  0  0  0  0  0  0  0  0  0  0
   -0.0044  -11.3399   19.2193 I   0  0  0  0  0  0  0  0  0  0  0  0
    2.5991  -10.3986   17.4900 N   0  0  0  0  0  0  0  0  0  0  0  0
   10.6345   -2.8906   16.6939 F   0  0  0  0  0  0  0  0  0  0  0  0
   11.5550   -3.6239   18.7925 C   0  0  0  0  0  0  0  0  0  0  0  0
   -0.5946  -12.7270   21.0620 F   0  0  0  0  0  0  0  0  0  0  0  0
    4.4757   -7.7841   15.0860 C   0  0  0  0  0  0  0  0  0  0  0  0
   -0.5468  -11.5504   19.3747 C   0  0  0  0  0  0  0  0  0  0  0  0
    2.3263   -9.8440   18.5674 C   0  0  0  0  0  0  0  0  0  0  0  0
   11.2889   -4.4567   19.5857 C   0  0  0  0  0  0  0  0  0  0  0  0
    8.4598   -5.7649   16.0305 F   0  0  0  0  0  0  0  0  0  0  0  0
    7.5608   -6.7806   17.2650 He  0  0  0  0  0  0  0  0  0  0  0  0
    1.6946  -12.0164   20.5405 He  0  0  0  0  0  0  0  0  0  0  0  0
    8.1190   -7.8416   15.8467 He  0  0  0  0  0  0  0  0  0  0  0  0
    4.1750  -10.7826   16.8847 He  0  0  0  0  0  0  0  0  0  0  0  0
    8.7193   -8.7588   18.9094 He  0  0  0  0  0  0  0  0  0  0  0  0
    6.3421   -7.2901   17.6388 He  0  0  0  0  0  0  0  0  0  0  0  0
    7.1904   -5.3817   16.6178 He  0  0  0  0  0  0  0  0  0  0  0  0
    5.0519   -7.2713   16.8562 He  0  0  0  0  0  0  0  0  0  0  0  0
    4.3576  -10.1611   18.6327 He  0  0  0  0  0  0  0  0  0  0  0  0
  1  3  4  0
  1  4  2  0
  1  5  4  0
  1  7  1  0
  1 10  4  0
  1 14  1  0
  1 16  4  0
  1 21  1  0
  1 23  2  0
  2  4  2  0
  2 14  1  0
  2 16  3  0
  2 18  2  0
  2 22  3  0
  3  4  2  0
  3  6  2  0
  3 13  3  0
  3 14  2  0
  3 16  4  0
  3 19  1  0
  3 25  3  0
  4  6  3  0
  4  7  3  0
  4 12  1  0
  4 16  3  0
  4 20  3  0
  4 22  2  0
  4 23  1  0
  4 25  1  0
  5  8  1  0
  5  9  4  0
  5 11  4  0
  5 13  1  0
  5 15  2  0
  5 18  1  0
  5 19  4  0
  5 23  3  0
  6  7  1  0
  6  9  2  0
  6 13  4  0
  6 18  3  0
  6 20  2  0
  6 25  1  0
  7 11  2  0
  7 17  1  0
  8 11  3  0
  8 15  4  0
  8 16  1  0
  8 22  4  0
  8 23  4  0
  9 10  4  0
  9 16  2  0
  9 18  3  0
  9 20  3  0
  9 22  4  0
 10 11  4  0
 10 12  1  0
 10 16  4  0
 10 23  1  0
 10 25  3  0
 11 13  3  0
 11 17  1  0
 11 20  3  0
 11 21  1  0
 11 22  3  0
 12 13  3  0
 12 18  3  0
 13 14  1  0
 13 15  3  0
 13 17  2  0
 13 19  3  0
 13 23  2  0
 13 25  1  0
 14 15  3  0
 14 23  3  0
 14 24  1  0
 14 25  2  0
 16 18  2  0
 16 20  4  0
 16 22  4  0
 16 25  1  0
 18 21  2  0
 19 24  4  0
 21 23  1  0
 21 24  2  0
 22 24  1  0
 22 25  3  0
 23 25  4  0
M  END
$$$$

 Created by Python create_sdf_string function

 34 26  0  0  0  0  0  0  0  0999 V2000
   13.4107   -4.7896   20.8253 O   0  0  0  0  0  0  0  0  0  0  0  0
    7.6056   -6.6741   17.4559 F   0  0  0  0  0  0  0  0  0  0  0  0
   12.0167   -4.8585   21.9768 O   0  0  0  0  0  0  0  0  0  0  0  0
    8.9809   -7.6479   16.8039 F   0  0  0  0  0  0  0  0  0  0  0  0
    1.3115  -12.2131   21.0626 C   0  0  0  0  0  0  0  0  0  0  0  0
    4.4125   -9.2045   16.8270 C   0  0  0  0  0  0  0  0  0  0  0  0
   10.8035   -3.8489   17.6005 C   0  0  0  0  0  0  0  0  0  0  0  0
    7.6285   -8.4400   16.1488 F   0  0  0  0  0  0  0  0  0  0  0  0
    7.9647   -7.8299   15.9066 F   0  0  0  0  0  0  0  0  0  0  0  0
   10.7518   -5.7787   19.5767 C   0  0  0  0  0  0  0  0  0  0  0  0
    1.2755  -11.1705   19.0727 C   0  0  0  0  0  0  0  0  0  0  0  0
    4.1240   -9.7657   17.2769 C   0  0  0  0  0  0  0  0  0  0  0  0
   10.1456   -5.0456   17.4726 C   0  0  0  0  0  0  0  0  0  0  0  0
   10.0245   -5.9331   18.3634 C   0  0  0  0  0  0  0  0  0  0  0  0
    9.2484   -6.0618   16.2958 F   0  0  0  0  0  0  0  0  0  0  0  0
    8.7863   -8.0188   18.4730 F   0  0  0  0  0  0  0  0  0  0  0  0
    9.2161   -6.9641   18.0055 C   0  0  0  0  0  0  0  0  0  0  0  0
    6.4354   -9.2965   16.1569 C   0  0  0  0  0  0  0  0  0  0  0  0
   12.3275   -4.6555   20.9243 C   0  0  0  0  0  0  0  0  0  0  0  0
    1.9944  -11.7149   20.1609 C   0  0  0  0  0  0  0  0  0  0  0  0
    6.3760   -7.6866   17.2814 C   0  0  0  0  0  0  0  0  0  0  0  0
   -0.3960  -11.7452   19.7076 C   0  0  0  0  0  0  0  0  0  0  0  0
    2.4937  -10.0199   17.4613 N   0  0  0  0  0  0  0  0  0  0  0  0
   10.7450   -3.0769   16.5266 F   0  0  0  0  0  0  0  0  0  0  0  0
   11.4308   -3.5928   18.8506 C   0  0  0  0  0  0  0  0  0  0  0  0
    7.5838   -5.9334   16.2627 F   0  0  0  0  0  0  0  0  0  0  0  0
    0.0534  -12.4272   20.9340 C   0  0  0  0  0  0  0  0  0  0  0  0
    4.8339   -8.4957   16.0727 C   0  0  0  0  0  0  0  0  0  0  0  0
   -0.3455  -11.4007   19.1628 C   0  0  0  0  0  0  0  0  0  0  0  0
    2.2434  -10.3889   18.0821 C   0  0  0  0  0  0  0  0  0  0  0  0
    5.4656   -7.9988   16.9783 C   0  0  0  0  0  0  0  0  0  0  0  0
   11.5123   -4.5835   19.7706 C   0  0  0  0  0  0  0  0  0  0  0  0
    4.1099  -10.3277   18.4062 O   0  0  0  0  0  0  0  0  0  0  0  0
    8.3654   -5.6118   15.9510 F   0  0  0  0  0  0  0  0  0  0  0  0
  1 19  1  0
  2 17  1  0
  3 19  1  0
  5 20  4  0
  5 27  4  0
  6 12  4  0
  7 13  4  0
  7 24  1  0
  7 25  4  0
 10 14  4  0
 10 32  4  0
 11 20  4  0
 11 29  4  0
 11 30  1  0
 12 33  4  0
 13 14  4  0
 13 15  1  0
 14 17  1  0
 16 17  1  0
 19 32  1  0
 21 31  1  0
 22 27  4  0
 22 29  4  0
 23 30  1  0
 25 32  4  0
 26 34  1  0
M  END
$$$$

 Created by Python create_sdf_string function

 34112  0  0  0  0  0  0  0  0999 V2000
   13.4476   -5.0359   20.7297 O   0  0  0  0  0  0  0  0  0  0  0  0
    8.1371   -6.4931   17.4521 F   0  0  0  0  0  0  0  0  0  0  0  0
   12.6058   -5.1222   21.1939 O   0  0  0  0  0  0  0  0  0  0  0  0
    1.6424  -12.3423   21.1478 C   0  0  0  0  0  0  0  0  0  0  0  0
    5.2314  -10.4892   16.6370 N   0  0  0  0  0  0  0  0  0  0  0  0
    7.7960   -7.9832   16.8903 S   0  0  0  0  0  0  0  0  0  0  0  0
    6.8555   -6.2265   17.1488 C   0  0  0  0  0  0  0  0  0  0  0  0
   11.2162   -6.0834   19.1747 I   0  0  0  0  0  0  0  0  0  0  0  0
    1.0916  -10.9230   19.0252 C   0  0  0  0  0  0  0  0  0  0  0  0
    4.5808  -12.2571   16.9373 I   0  0  0  0  0  0  0  0  0  0  0  0
   10.1231   -5.0019   17.7396 C   0  0  0  0  0  0  0  0  0  0  0  0
    9.8830   -5.9063   18.4635 C   0  0  0  0  0  0  0  0  0  0  0  0
    9.6425   -4.8499   16.7089 F   0  0  0  0  0  0  0  0  0  0  0  0
    7.0811   -8.4006   18.2414 C   0  0  0  0  0  0  0  0  0  0  0  0
    9.5579   -7.0081   18.7924 C   0  0  0  0  0  0  0  0  0  0  0  0
   12.0513   -4.5957   21.0254 C   0  0  0  0  0  0  0  0  0  0  0  0
    1.7036  -11.7784   20.3938 C   0  0  0  0  0  0  0  0  0  0  0  0
    0.0711  -12.0268   19.8316 F   0  0  0  0  0  0  0  0  0  0  0  0
    2.8886   -9.9033   17.2730 N   0  0  0  0  0  0  0  0  0  0  0  0
   11.1794   -3.2711   16.7372 F   0  0  0  0  0  0  0  0  0  0  0  0
   11.5124   -4.2502   18.9461 N   0  0  0  0  0  0  0  0  0  0  0  0
    7.8322   -6.2910   15.2033 Cl  0  0  0  0  0  0  0  0  0  0  0  0
   -0.1146  -12.5661   21.6013 C   0  0  0  0  0  0  0  0  0  0  0  0
    5.8454   -6.9730   17.5351 N   0  0  0  0  0  0  0  0  0  0  0  0
   -0.2741  -11.2248   19.0684 P   0  0  0  0  0  0  0  0  0  0  0  0
    4.7913   -8.7940   16.7275 N   0  0  0  0  0  0  0  0  0  0  0  0
   11.2322   -4.2304   19.8753 C   0  0  0  0  0  0  0  0  0  0  0  0
    3.6465  -10.4043   18.5111 O   0  0  0  0  0  0  0  0  0  0  0  0
    9.6915   -8.2941   15.5372 He  0  0  0  0  0  0  0  0  0  0  0  0
   11.3732   -4.2026   17.3638 He  0  0  0  0  0  0  0  0  0  0  0  0
    7.1036   -9.7166   16.7587 He  0  0  0  0  0  0  0  0  0  0  0  0
    7.9648   -6.9968   17.6113 He  0  0  0  0  0  0  0  0  0  0  0  0
    2.3951  -10.3411   18.2925 He  0  0  0  0  0  0  0  0  0  0  0  0
    8.1313   -5.9255   15.5330 He  0  0  0  0  0  0  0  0  0  0  0  0
  1  3  3  0
  1  7  1  0
  1 10  4  0
  1 11  3  0
  1 13  1  0
  1 16  1  0
  1 23  3  0
  1 24  4  0
  1 26  1  0
  1 27  1  0
  2  6  4  0
  2  9  3  0
  2 11  1  0
  2 13  1  0
  3 12  4  0
  3 16  1  0
  3 22  2  0
  3 24  1  0
  3 26  3  0
  4  8  1  0
  4 10  3  0
  4 23  4  0
  4 24  1  0
  5  7  1  0
  5  8  3  0
  5  9  3  0
  5 10  4  0
  5 13  2  0
  5 19  2  0
  5 21  2  0
  5 22  4  0
  5 25  1  0
  5 27  2  0
  6 18  4  0
  6 19  4  0
  6 20  3  0
  6 22  4  0
  6 24  2  0
  6 25  1  0
  6 26  4  0
  6 27  3  0
  7  8  2  0
  7 10  1  0
  7 15  3  0
  7 16  2  0
  7 19  1  0
  7 21  3  0
  7 24  3  0
  7 26  2  0
  8 12  4  0
  8 17  1  0
  8 19  4  0
  8 23  1  0
  8 24  1  0
  8 26  4  0
  8 27  4  0
  8 28  2  0
  9 13  3  0
  9 16  1  0
  9 17  2  0
  9 18  2  0
  9 21  4  0
  9 22  1  0
  9 23  4  0
  9 25  4  0
  9 26  1  0
 10 11  1  0
 10 12  2  0
 10 15  3  0
 10 19  1  0
 10 22  1  0
 10 23  4  0
 10 24  1  0
 10 27  3  0
 11 12  4  0
 11 13  3  0
 11 24  3  0
 11 27  2  0
 12 16  4  0
 12 19  1  0
 12 24  2  0
 12 25  1  0
 12 26  1  0
 12 27  4  0
 13 14  1  0
 13 15  3  0
 13 16  1  0
 13 17  3  0
 13 19  1  0
 13 20  3  0
 13 22  4  0
 13 23  2  0
 13 24  4  0
 13 25  1  0
 14 15  1  0
 14 17  3  0
 14 27  4  0
 14 28  2  0
 15 22  3  0
 16 21  1  0
 16 24  1  0
 16 27  1  0
 17 21  3  0
 18 23  4  0
 18 25  4  0
 18 26  3  0
 18 28  2  0
 20 22  4  0
 21 26  3  0
 22 28  4  0
 25 28  4  0
 26 27  3  0
M  END
$$$$

 Created by Python create_sdf_string function

 34 25  0  0  0  0  0  0  0  0999 V2000
   13.3467   -4.6685   20.8963 O   0  0  0  0  0  0  0  0  0  0  0  0
    8.3270   -6.3196   17.3146 C   0  0  0  0  0  0  0  0  0  0  0  0
   12.4070   -4.9398   21.7771 O   0  0  0  0  0  0  0  0  0  0  0  0
    8.4786   -8.1816   15.5584 F   0  0  0  0  0  0  0  0  0  0  0  0
    1.3661  -12.2591   21.3342 C   0  0  0  0  0  0  0  0  0  0  0  0
    5.1262  -10.0544   17.0367 C   0  0  0  0  0  0  0  0  0  0  0  0
   11.0282   -3.9321   17.6803 C   0  0  0  0  0  0  0  0  0  0  0  0
    7.3371   -8.2292   16.6924 C   0  0  0  0  0  0  0  0  0  0  0  0
    7.0169   -6.8392   16.9729 C   0  0  0  0  0  0  0  0  0  0  0  0
   10.8929   -5.7603   19.7433 C   0  0  0  0  0  0  0  0  0  0  0  0
    1.4280  -11.2442   19.1774 C   0  0  0  0  0  0  0  0  0  0  0  0
    4.4480  -10.4183   17.4909 C   0  0  0  0  0  0  0  0  0  0  0  0
   10.0980   -5.0377   17.6471 C   0  0  0  0  0  0  0  0  0  0  0  0
   10.1307   -5.9936   18.6573 C   0  0  0  0  0  0  0  0  0  0  0  0
    9.3145   -4.7874   16.5237 F   0  0  0  0  0  0  0  0  0  0  0  0
    7.2440   -8.3177   17.8112 C   0  0  0  0  0  0  0  0  0  0  0  0
    9.4692   -7.2486   18.6387 C   0  0  0  0  0  0  0  0  0  0  0  0
    6.5683   -9.2688   16.6450 C   0  0  0  0  0  0  0  0  0  0  0  0
   12.4683   -4.6521   21.0194 C   0  0  0  0  0  0  0  0  0  0  0  0
    2.0535  -11.7859   20.3391 C   0  0  0  0  0  0  0  0  0  0  0  0
    7.9599   -6.9344   17.3734 C   0  0  0  0  0  0  0  0  0  0  0  0
   -0.5248  -11.9579   20.1086 C   0  0  0  0  0  0  0  0  0  0  0  0
    2.6451  -10.0704   17.4866 N   0  0  0  0  0  0  0  0  0  0  0  0
   11.2262   -3.2775   16.5547 O   0  0  0  0  0  0  0  0  0  0  0  0
   11.6937   -3.6818   18.8729 N   0  0  0  0  0  0  0  0  0  0  0  0
    7.8516   -6.4861   15.5938 C   0  0  0  0  0  0  0  0  0  0  0  0
    0.0428  -12.4034   21.1661 C   0  0  0  0  0  0  0  0  0  0  0  0
    5.5858   -7.5867   17.2091 C   0  0  0  0  0  0  0  0  0  0  0  0
    0.0190  -11.3494   19.0208 C   0  0  0  0  0  0  0  0  0  0  0  0
    2.1945  -10.6185   18.1877 C   0  0  0  0  0  0  0  0  0  0  0  0
    4.6129   -8.6939   16.9764 C   0  0  0  0  0  0  0  0  0  0  0  0
   11.6651   -4.6440   19.8201 C   0  0  0  0  0  0  0  0  0  0  0  0
    4.2943  -10.8519   18.5930 O   0  0  0  0  0  0  0  0  0  0  0  0
    7.9779   -5.8022   15.4365 F   0  0  0  0  0  0  0  0  0  0  0  0
  1 19  2  0
  2 21  1  0
  3 19  1  0
  5 20  4  0
  5 27  4  0
  6 12  4  0
  7 13  4  0
  7 24  1  0
  7 25  4  0
 10 14  4  0
 10 32  4  0
 11 20  4  0
 11 29  4  0
 11 30  1  0
 12 33  4  0
 13 14  4  0
 13 15  1  0
 14 17  1  0
 19 32  1  0
 22 27  4  0
 22 29  4  0
 23 30  1  0
 25 32  4  0
 26 34  1  0
 28 31  4  0
M  END
$$$$

 Created by Python create_sdf_string function

 34 79  0  0  0  0  0  0  0  0999 V2000
    7.4913   -5.4582   17.8461 I   0  0  0  0  0  0  0  0  0  0  0  0
   11.9590   -5.5750   22.0579 O   0  0  0  0  0  0  0  0  0  0  0  0
    8.0890   -9.2331   14.6921 N   0  0  0  0  0  0  0  0  0  0  0  0
    1.3925  -12.5091   21.5282 C   0  0  0  0  0  0  0  0  0  0  0  0
    5.6299   -9.6778   16.3629 Br  0  0  0  0  0  0  0  0  0  0  0  0
    6.7770   -6.8447   18.2974 S   0  0  0  0  0  0  0  0  0  0  0  0
    6.2762   -8.6203   15.6725 C   0  0  0  0  0  0  0  0  0  0  0  0
   11.4784   -5.9340   19.7352 C   0  0  0  0  0  0  0  0  0  0  0  0
    0.9748  -11.9029   19.3344 C   0  0  0  0  0  0  0  0  0  0  0  0
    2.1646  -10.9483   16.4154 N   0  0  0  0  0  0  0  0  0  0  0  0
   10.4425   -4.5729   17.2889 C   0  0  0  0  0  0  0  0  0  0  0  0
    8.8653   -7.5362   18.2934 F   0  0  0  0  0  0  0  0  0  0  0  0
   12.7760   -4.5232   21.3521 S   0  0  0  0  0  0  0  0  0  0  0  0
    1.7711  -11.9844   20.7010 C   0  0  0  0  0  0  0  0  0  0  0  0
    8.2038   -8.0302   16.5466 C   0  0  0  0  0  0  0  0  0  0  0  0
   10.4509   -3.1636   19.5837 N   0  0  0  0  0  0  0  0  0  0  0  0
    5.1250   -7.8125   14.9151 S   0  0  0  0  0  0  0  0  0  0  0  0
    0.0663  -12.1466   21.3613 C   0  0  0  0  0  0  0  0  0  0  0  0
    0.5031  -10.5561   18.9072 C   0  0  0  0  0  0  0  0  0  0  0  0
    2.4467  -10.3097   18.2025 C   0  0  0  0  0  0  0  0  0  0  0  0
    5.9723   -9.4601   16.5117 C   0  0  0  0  0  0  0  0  0  0  0  0
   11.0583   -4.7416   20.1074 C   0  0  0  0  0  0  0  0  0  0  0  0
    4.9638  -10.5178   18.7571 O   0  0  0  0  0  0  0  0  0  0  0  0
   13.2970   -4.9384   20.1242 He  0  0  0  0  0  0  0  0  0  0  0  0
   10.7377   -4.0088   17.5140 He  0  0  0  0  0  0  0  0  0  0  0  0
    9.8902   -6.4316   18.4415 He  0  0  0  0  0  0  0  0  0  0  0  0
    9.1969   -5.1346   16.0610 He  0  0  0  0  0  0  0  0  0  0  0  0
    6.3907   -8.9434   17.1371 He  0  0  0  0  0  0  0  0  0  0  0  0
    6.6519   -9.5431   18.5512 He  0  0  0  0  0  0  0  0  0  0  0  0
   -0.3350  -12.2768   19.8005 He  0  0  0  0  0  0  0  0  0  0  0  0
    2.4346   -9.8799   17.8606 He  0  0  0  0  0  0  0  0  0  0  0  0
   10.9505   -3.1883   16.8261 He  0  0  0  0  0  0  0  0  0  0  0  0
    7.1572   -8.2332   16.8202 He  0  0  0  0  0  0  0  0  0  0  0  0
    7.6892   -5.0972   15.9032 He  0  0  0  0  0  0  0  0  0  0  0  0
  1  3  2  0
  1  4  4  0
  1  5  2  0
  1  6  4  0
  1 10  3  0
  1 12  4  0
  1 21  1  0
  1 22  2  0
  1 23  1  0
  2 10  3  0
  2 13  1  0
  2 15  4  0
  2 17  4  0
  2 19  3  0
  3  4  2  0
  3  6  3  0
  3 20  1  0
  4  6  2  0
  4 12  3  0
  4 14  4  0
  4 16  3  0
  4 18  4  0
  4 23  1  0
  5  6  2  0
  5  7  1  0
  5 11  2  0
  5 12  2  0
  5 13  1  0
  5 14  2  0
  5 15  1  0
  5 16  3  0
  5 21  2  0
  5 23  3  0
  6 12  1  0
  6 13  1  0
  6 14  3  0
  6 15  3  0
  6 18  1  0
  6 21  3  0
  7 11  3  0
  7 13  3  0
  7 15  4  0
  7 19  3  0
  7 22  4  0
  7 23  4  0
  8 12  3  0
  8 18  2  0
  8 22  4  0
  9 10  3  0
  9 14  4  0
  9 15  1  0
  9 19  2  0
  9 20  3  0
 10 13  2  0
 10 15  4  0
 10 22  3  0
 11 12  4  0
 11 13  4  0
 11 15  1  0
 11 17  3  0
 12 18  3  0
 12 19  3  0
 13 15  4  0
 13 17  1  0
 13 18  4  0
 13 21  3  0
 13 22  1  0
 14 17  4  0
 14 20  3  0
 15 19  2  0
 15 20  2  0
 16 17  2  0
 16 22  4  0
 17 18  1  0
 17 19  2  0
 17 22  3  0
 18 21  1  0
 19 21  1  0
 21 23  4  0
M  END
$$$$

 Created by Python create_sdf_string function

 34 23  0  0  0  0  0  0  0  0999 V2000
   13.3170   -4.5101   21.1993 O   0  0  0  0  0  0  0  0  0  0  0  0
    8.0080   -6.0562   17.3131 C   0  0  0  0  0  0  0  0  0  0  0  0
   12.0073   -5.2552   22.1571 O   0  0  0  0  0  0  0  0  0  0  0  0
    7.8141   -8.6615   15.1098 C   0  0  0  0  0  0  0  0  0  0  0  0
    1.3409  -12.3997   21.5200 C   0  0  0  0  0  0  0  0  0  0  0  0
    4.7809   -9.4243   16.7492 C   0  0  0  0  0  0  0  0  0  0  0  0
   10.7010   -3.6709   18.0023 C   0  0  0  0  0  0  0  0  0  0  0  0
    7.1715   -7.1267   17.8275 C   0  0  0  0  0  0  0  0  0  0  0  0
    6.1885   -8.6700   15.8998 C   0  0  0  0  0  0  0  0  0  0  0  0
   10.8472   -5.9230   19.6693 C   0  0  0  0  0  0  0  0  0  0  0  0
    1.4717  -11.3702   19.3689 C   0  0  0  0  0  0  0  0  0  0  0  0
    2.3213  -10.0621   17.2348 N   0  0  0  0  0  0  0  0  0  0  0  0
    9.9706   -4.8404   17.6539 C   0  0  0  0  0  0  0  0  0  0  0  0
   10.0471   -5.9362   18.5262 C   0  0  0  0  0  0  0  0  0  0  0  0
    8.8970   -5.0647   16.5275 C   0  0  0  0  0  0  0  0  0  0  0  0
    6.2414   -8.5724   17.2889 C   0  0  0  0  0  0  0  0  0  0  0  0
    9.2295   -7.1530   18.1849 C   0  0  0  0  0  0  0  0  0  0  0  0
    5.9594   -8.8318   18.2089 C   0  0  0  0  0  0  0  0  0  0  0  0
   12.3425   -4.7547   21.2350 C   0  0  0  0  0  0  0  0  0  0  0  0
    2.0613  -11.9195   20.4883 C   0  0  0  0  0  0  0  0  0  0  0  0
    7.9915   -7.9183   16.4238 C   0  0  0  0  0  0  0  0  0  0  0  0
   -0.4672  -11.8707   20.1157 C   0  0  0  0  0  0  0  0  0  0  0  0
    2.7505  -10.2160   17.7772 C   0  0  0  0  0  0  0  0  0  0  0  0
   10.6818   -3.1297   16.8786 O   0  0  0  0  0  0  0  0  0  0  0  0
   11.3617   -3.5864   19.3161 N   0  0  0  0  0  0  0  0  0  0  0  0
    5.3511   -8.2708   15.5757 C   0  0  0  0  0  0  0  0  0  0  0  0
    0.0405  -12.4040   21.2575 C   0  0  0  0  0  0  0  0  0  0  0  0
    7.2195   -8.0113   16.7478 C   0  0  0  0  0  0  0  0  0  0  0  0
    0.3866  -11.2418   18.9687 C   0  0  0  0  0  0  0  0  0  0  0  0
    2.5790  -10.6408   18.2329 C   0  0  0  0  0  0  0  0  0  0  0  0
    5.1549   -9.3803   17.0471 C   0  0  0  0  0  0  0  0  0  0  0  0
   11.4827   -4.7230   20.0386 C   0  0  0  0  0  0  0  0  0  0  0  0
    4.7073  -10.4179   18.7066 O   0  0  0  0  0  0  0  0  0  0  0  0
    7.9943   -5.1295   15.6847 O   0  0  0  0  0  0  0  0  0  0  0  0
  1 19  2  0
  2 15  4  0
  3 19  1  0
  5 20  4  0
  5 27  4  0
  7 13  4  0
  7 24  1  0
  7 25  4  0
 10 14  4  0
 10 32  4  0
 11 20  4  0
 11 29  4  0
 11 30  1  0
 13 14  4  0
 13 15  4  0
 14 17  1  0
 15 34  2  0
 19 32  1  0
 21 28  1  0
 22 27  4  0
 22 29  4  0
 23 30  1  0
 25 32  4  0
M  END
$$$$

 Created by Python create_sdf_string function

 34 48  0  0  0  0  0  0  0  0999 V2000
   14.2184   -4.4099   20.4468 O   0  0  0  0  0  0  0  0  0  0  0  0
    7.7918   -6.1970   16.8304 C   0  0  0  0  0  0  0  0  0  0  0  0
   12.3356   -5.3438   21.4096 O   0  0  0  0  0  0  0  0  0  0  0  0
    1.4160  -11.7913   21.8203 P   0  0  0  0  0  0  0  0  0  0  0  0
   11.0158   -4.6667   17.5143 C   0  0  0  0  0  0  0  0  0  0  0  0
    6.5674   -7.3803   18.5316 O   0  0  0  0  0  0  0  0  0  0  0  0
    9.9691   -5.9732   19.8410 C   0  0  0  0  0  0  0  0  0  0  0  0
    9.6892   -4.5621   17.4909 C   0  0  0  0  0  0  0  0  0  0  0  0
   10.6478   -6.4203   19.2053 C   0  0  0  0  0  0  0  0  0  0  0  0
    8.8203   -7.7985   18.0056 C   0  0  0  0  0  0  0  0  0  0  0  0
   12.7226   -4.4880   21.2369 C   0  0  0  0  0  0  0  0  0  0  0  0
    1.8111  -12.1165   20.5424 C   0  0  0  0  0  0  0  0  0  0  0  0
   -0.6692  -12.5650   19.9288 C   0  0  0  0  0  0  0  0  0  0  0  0
    3.1459  -10.7148   17.5895 C   0  0  0  0  0  0  0  0  0  0  0  0
   10.9233   -3.5949   16.7437 O   0  0  0  0  0  0  0  0  0  0  0  0
   10.2908   -3.4594   19.0697 N   0  0  0  0  0  0  0  0  0  0  0  0
    6.0382   -6.9709   15.3501 O   0  0  0  0  0  0  0  0  0  0  0  0
    0.4470  -12.4376   20.8477 C   0  0  0  0  0  0  0  0  0  0  0  0
    0.5978  -11.2689   19.1120 O   0  0  0  0  0  0  0  0  0  0  0  0
    3.6573   -9.6052   17.5801 N   0  0  0  0  0  0  0  0  0  0  0  0
    4.0183  -10.2437   18.5608 O   0  0  0  0  0  0  0  0  0  0  0  0
    8.0275   -4.5061   15.8715 O   0  0  0  0  0  0  0  0  0  0  0  0
    5.2700   -6.8301   14.7747 He  0  0  0  0  0  0  0  0  0  0  0  0
    4.7994  -10.0152   17.0493 He  0  0  0  0  0  0  0  0  0  0  0  0
    5.2896   -9.3280   15.7187 He  0  0  0  0  0  0  0  0  0  0  0  0
    1.4456  -11.6114   19.7130 He  0  0  0  0  0  0  0  0  0  0  0  0
    0.3718  -10.2736   16.6278 He  0  0  0  0  0  0  0  0  0  0  0  0
    9.5993   -4.9695   15.6596 He  0  0  0  0  0  0  0  0  0  0  0  0
    6.5779   -8.3088   15.7432 He  0  0  0  0  0  0  0  0  0  0  0  0
    6.5686   -8.1528   17.4523 He  0  0  0  0  0  0  0  0  0  0  0  0
    7.2135   -8.4311   15.3589 He  0  0  0  0  0  0  0  0  0  0  0  0
    7.5414   -9.4157   16.3279 He  0  0  0  0  0  0  0  0  0  0  0  0
    3.2010   -9.9914   17.5247 He  0  0  0  0  0  0  0  0  0  0  0  0
   11.9091   -4.6352   19.7982 He  0  0  0  0  0  0  0  0  0  0  0  0
  1  4  1  0
  1 10  4  0
  1 11  2  0
  1 17  1  0
  2  3  2  0
  2  6  2  0
  2 21  1  0
  3  6  2  0
  3  7  1  0
  4  9  4  0
  4 12  4  0
  4 15  3  0
  4 17  4  0
  5  8  4  0
  5 15  1  0
  5 16  4  0
  6  7  2  0
  6 11  1  0
  6 14  4  0
  6 15  4  0
  6 16  1  0
  6 21  2  0
  6 22  4  0
  7  9  3  0
  7 11  1  0
  7 17  4  0
  7 21  3  0
  8 14  2  0
  9 18  1  0
 10 17  3  0
 10 18  2  0
 10 19  1  0
 10 20  3  0
 11 14  1  0
 11 17  3  0
 11 20  3  0
 12 21  3  0
 13 15  3  0
 13 17  1  0
 13 18  4  0
 13 19  4  0
 13 20  1  0
 14 19  2  0
 14 20  2  0
 15 18  3  0
 16 17  1  0
 17 22  1  0
 19 20  1  0
M  END
$$$$

 Created by Python create_sdf_string function

 34 24  0  0  0  0  0  0  0  0999 V2000
   13.3594   -4.1234   21.0675 O   0  0  0  0  0  0  0  0  0  0  0  0
    7.9835   -6.2712   16.7801 C   0  0  0  0  0  0  0  0  0  0  0  0
   12.3511   -5.1833   21.8208 O   0  0  0  0  0  0  0  0  0  0  0  0
    5.5114   -7.4029   15.4222 C   0  0  0  0  0  0  0  0  0  0  0  0
    1.2693  -12.2146   21.4759 C   0  0  0  0  0  0  0  0  0  0  0  0
    4.5315   -9.6917   17.3628 C   0  0  0  0  0  0  0  0  0  0  0  0
   10.6461   -3.9792   17.7866 C   0  0  0  0  0  0  0  0  0  0  0  0
    6.6805   -7.6405   18.0365 O   0  0  0  0  0  0  0  0  0  0  0  0
    4.8271   -9.1950   16.2402 C   0  0  0  0  0  0  0  0  0  0  0  0
   10.6460   -6.0380   19.6187 C   0  0  0  0  0  0  0  0  0  0  0  0
    1.5527  -11.3658   19.3615 C   0  0  0  0  0  0  0  0  0  0  0  0
    1.5999   -9.9448   17.1051 C   0  0  0  0  0  0  0  0  0  0  0  0
    9.8363   -5.0694   17.6688 C   0  0  0  0  0  0  0  0  0  0  0  0
   10.1705   -6.0475   18.8680 C   0  0  0  0  0  0  0  0  0  0  0  0
    8.9215   -5.2091   16.6443 C   0  0  0  0  0  0  0  0  0  0  0  0
    6.4719   -8.1645   15.9200 C   0  0  0  0  0  0  0  0  0  0  0  0
    8.6675   -7.7723   18.0251 C   0  0  0  0  0  0  0  0  0  0  0  0
    6.6796   -8.1129   17.4705 C   0  0  0  0  0  0  0  0  0  0  0  0
   12.4144   -4.6669   21.0033 C   0  0  0  0  0  0  0  0  0  0  0  0
    2.0426  -11.6934   20.5814 C   0  0  0  0  0  0  0  0  0  0  0  0
    7.2258   -8.5185   15.6895 C   0  0  0  0  0  0  0  0  0  0  0  0
   -0.4216  -12.3204   19.9417 C   0  0  0  0  0  0  0  0  0  0  0  0
    2.8381  -10.2780   17.7640 C   0  0  0  0  0  0  0  0  0  0  0  0
   10.8112   -3.2408   16.5925 O   0  0  0  0  0  0  0  0  0  0  0  0
   11.3757   -3.7315   18.9830 N   0  0  0  0  0  0  0  0  0  0  0  0
    6.2537   -6.9586   15.5678 C   0  0  0  0  0  0  0  0  0  0  0  0
    0.0468  -12.5458   21.1025 C   0  0  0  0  0  0  0  0  0  0  0  0
    7.2969   -8.7524   16.5706 C   0  0  0  0  0  0  0  0  0  0  0  0
    0.4051  -11.6426   18.9683 C   0  0  0  0  0  0  0  0  0  0  0  0
    2.7796  -10.2109   17.7964 C   0  0  0  0  0  0  0  0  0  0  0  0
    3.2374   -9.3782   16.9990 C   0  0  0  0  0  0  0  0  0  0  0  0
   11.4751   -4.6540   19.8091 C   0  0  0  0  0  0  0  0  0  0  0  0
    4.3403  -10.3841   18.6714 O   0  0  0  0  0  0  0  0  0  0  0  0
    8.3239   -4.5829   15.7591 O   0  0  0  0  0  0  0  0  0  0  0  0
  1 19  2  0
  2 15  1  0
  3 19  1  0
  4 26  1  0
  5 20  4  0
  5 27  4  0
  6 33  4  0
  7 13  4  0
  7 24  1  0
  7 25  4  0
  8 18  1  0
 10 14  4  0
 10 32  4  0
 11 20  4  0
 11 29  4  0
 11 30  1  0
 13 14  4  0
 13 15  4  0
 15 34  2  0
 19 32  1  0
 22 27  4  0
 22 29  4  0
 23 30  4  0
 25 32  4  0
M  END
$$$$

 Created by Python create_sdf_string function

 34 95  0  0  0  0  0  0  0  0999 V2000
   13.3862   -4.5659   20.6180 C   0  0  0  0  0  0  0  0  0  0  0  0
    8.2130   -6.6164   16.9039 N   0  0  0  0  0  0  0  0  0  0  0  0
   12.2827   -5.0378   22.2617 O   0  0  0  0  0  0  0  0  0  0  0  0
    1.0534  -12.0523   21.4005 F   0  0  0  0  0  0  0  0  0  0  0  0
   10.2418   -3.6388   18.4755 C   0  0  0  0  0  0  0  0  0  0  0  0
    7.7606   -8.0289   18.1029 N   0  0  0  0  0  0  0  0  0  0  0  0
    5.1234   -9.3976   14.6558 F   0  0  0  0  0  0  0  0  0  0  0  0
   10.7714   -5.6123   19.3934 C   0  0  0  0  0  0  0  0  0  0  0  0
    1.8745  -11.4762   18.4699 C   0  0  0  0  0  0  0  0  0  0  0  0
    1.2220  -12.0236   16.1104 C   0  0  0  0  0  0  0  0  0  0  0  0
   10.3365   -5.1005   17.9227 C   0  0  0  0  0  0  0  0  0  0  0  0
    5.5177   -6.8984   16.9094 N   0  0  0  0  0  0  0  0  0  0  0  0
    8.9086   -7.6923   18.0597 C   0  0  0  0  0  0  0  0  0  0  0  0
    5.9840   -9.0135   16.8807 C   0  0  0  0  0  0  0  0  0  0  0  0
    2.4168  -12.0217   20.8059 C   0  0  0  0  0  0  0  0  0  0  0  0
    8.9518   -8.3195   14.3713 Se  0  0  0  0  0  0  0  0  0  0  0  0
   -0.3748  -12.6873   20.3818 C   0  0  0  0  0  0  0  0  0  0  0  0
    2.9489   -9.8138   18.1320 C   0  0  0  0  0  0  0  0  0  0  0  0
   10.1929   -2.8281   16.8645 O   0  0  0  0  0  0  0  0  0  0  0  0
    0.0197  -11.7883   21.2633 C   0  0  0  0  0  0  0  0  0  0  0  0
    0.9516  -11.6417   18.7265 C   0  0  0  0  0  0  0  0  0  0  0  0
    3.2340  -10.4107   18.1431 C   0  0  0  0  0  0  0  0  0  0  0  0
   11.1645   -4.5895   20.1596 C   0  0  0  0  0  0  0  0  0  0  0  0
    3.8352  -10.2620   19.1392 O   0  0  0  0  0  0  0  0  0  0  0  0
    7.5594   -4.3677   15.5629 O   0  0  0  0  0  0  0  0  0  0  0  0
    3.8931   -7.2919   14.6182 He  0  0  0  0  0  0  0  0  0  0  0  0
    4.9823   -8.5796   16.1729 He  0  0  0  0  0  0  0  0  0  0  0  0
   10.5742   -6.6646   18.5824 He  0  0  0  0  0  0  0  0  0  0  0  0
    8.1172   -3.4941   17.2344 He  0  0  0  0  0  0  0  0  0  0  0  0
   11.9942   -4.7999   20.6963 He  0  0  0  0  0  0  0  0  0  0  0  0
   11.5378   -3.1962   18.4536 He  0  0  0  0  0  0  0  0  0  0  0  0
    5.1696   -6.1787   15.1637 He  0  0  0  0  0  0  0  0  0  0  0  0
    7.3880   -9.0100   15.6383 He  0  0  0  0  0  0  0  0  0  0  0  0
    4.0695   -8.2846   16.2809 He  0  0  0  0  0  0  0  0  0  0  0  0
  1  3  4  0
  1  6  4  0
  1  8  1  0
  1 16  4  0
  1 21  3  0
  1 23  4  0
  2 15  4  0
  2 16  2  0
  2 18  1  0
  3  4  1  0
  3  7  3  0
  3 10  2  0
  3 11  4  0
  3 12  4  0
  3 16  1  0
  3 21  4  0
  3 24  1  0
  4  7  1  0
  4 12  4  0
  4 14  2  0
  4 15  4  0
  4 20  4  0
  4 24  2  0
  5  7  2  0
  5 10  3  0
  5 11  4  0
  5 14  3  0
  5 16  1  0
  5 23  2  0
  5 24  2  0
  6  7  2  0
  6  8  4  0
  6 11  3  0
  6 15  4  0
  6 16  4  0
  6 19  4  0
  6 20  3  0
  6 24  2  0
  7  9  3  0
  7 10  2  0
  7 11  1  0
  7 12  1  0
  7 15  2  0
  7 16  3  0
  7 19  4  0
  7 20  4  0
  7 21  4  0
  7 22  1  0
  7 24  1  0
  8 13  1  0
  8 14  4  0
  8 23  4  0
  9 15  4  0
  9 16  1  0
  9 21  4  0
  9 22  1  0
 10 12  3  0
 10 14  1  0
 10 16  1  0
 10 17  4  0
 10 20  3  0
 11 12  1  0
 11 14  3  0
 11 15  1  0
 11 19  2  0
 11 21  4  0
 11 22  2  0
 11 24  4  0
 12 13  3  0
 12 18  3  0
 12 20  2  0
 12 22  3  0
 12 23  4  0
 12 25  2  0
 13 14  2  0
 13 18  3  0
 13 21  2  0
 14 16  1  0
 14 19  4  0
 14 23  1  0
 14 25  2  0
 15 20  1  0
 15 25  1  0
 16 19  3  0
 16 20  4  0
 16 23  4  0
 16 25  4  0
 17 18  3  0
 17 19  4  0
 17 21  1  0
 17 24  3  0
 19 24  1  0
 19 25  2  0
 23 24  4  0
 23 25  2  0
M  END
$$$$

 Created by Python create_sdf_string function

 34 26  0  0  0  0  0  0  0  0999 V2000
   13.2168   -4.0693   21.1446 O   0  0  0  0  0  0  0  0  0  0  0  0
    8.3616   -6.5969   16.9784 N   0  0  0  0  0  0  0  0  0  0  0  0
   12.2003   -5.0834   22.1183 O   0  0  0  0  0  0  0  0  0  0  0  0
    4.0040   -7.6905   15.5775 C   0  0  0  0  0  0  0  0  0  0  0  0
    1.3831  -11.9649   21.3986 C   0  0  0  0  0  0  0  0  0  0  0  0
    4.6985   -8.8350   16.7179 C   0  0  0  0  0  0  0  0  0  0  0  0
   10.5122   -3.8631   17.9785 C   0  0  0  0  0  0  0  0  0  0  0  0
    7.9620   -7.8624   17.4798 C   0  0  0  0  0  0  0  0  0  0  0  0
    5.1520   -8.9148   15.6473 C   0  0  0  0  0  0  0  0  0  0  0  0
   10.9651   -5.9617   19.7551 C   0  0  0  0  0  0  0  0  0  0  0  0
    1.7791  -11.3903   19.1470 C   0  0  0  0  0  0  0  0  0  0  0  0
    1.4351  -10.1130   16.9533 C   0  0  0  0  0  0  0  0  0  0  0  0
    9.8747   -5.0382   17.7352 C   0  0  0  0  0  0  0  0  0  0  0  0
   10.1234   -6.0615   18.6789 C   0  0  0  0  0  0  0  0  0  0  0  0
    8.9243   -5.0964   16.6875 C   0  0  0  0  0  0  0  0  0  0  0  0
    5.8898   -7.4567   16.5086 C   0  0  0  0  0  0  0  0  0  0  0  0
    9.0283   -7.6305   17.9697 C   0  0  0  0  0  0  0  0  0  0  0  0
    6.0162   -8.8281   16.7030 C   0  0  0  0  0  0  0  0  0  0  0  0
   12.3040   -4.5811   21.1267 C   0  0  0  0  0  0  0  0  0  0  0  0
    2.2678  -11.6038   20.3059 C   0  0  0  0  0  0  0  0  0  0  0  0
    8.1252   -8.0695   15.3886 C   0  0  0  0  0  0  0  0  0  0  0  0
   -0.3057  -12.3254   19.9140 C   0  0  0  0  0  0  0  0  0  0  0  0
    2.6907   -9.9618   17.2793 C   0  0  0  0  0  0  0  0  0  0  0  0
   10.1591   -3.1408   16.9195 O   0  0  0  0  0  0  0  0  0  0  0  0
   11.2877   -3.6027   19.1850 N   0  0  0  0  0  0  0  0  0  0  0  0
    5.4532   -7.0303   15.4864 C   0  0  0  0  0  0  0  0  0  0  0  0
    0.1359  -12.2984   21.1298 C   0  0  0  0  0  0  0  0  0  0  0  0
    7.2253   -8.5079   15.9177 C   0  0  0  0  0  0  0  0  0  0  0  0
    0.5123  -11.8166   18.8533 C   0  0  0  0  0  0  0  0  0  0  0  0
    2.9061  -10.5292   18.1627 C   0  0  0  0  0  0  0  0  0  0  0  0
    4.0796   -8.7024   16.5326 C   0  0  0  0  0  0  0  0  0  0  0  0
   11.4890   -4.6964   20.0062 C   0  0  0  0  0  0  0  0  0  0  0  0
    4.0361  -10.4661   18.6101 O   0  0  0  0  0  0  0  0  0  0  0  0
    8.0592   -4.7733   15.7721 O   0  0  0  0  0  0  0  0  0  0  0  0
  1 19  2  0
  2 15  1  0
  2 17  1  0
  3 19  1  0
  5 20  4  0
  5 27  4  0
  7 13  4  0
  7 24  1  0
  7 25  4  0
 10 14  4  0
 10 32  4  0
 11 20  4  0
 11 29  4  0
 11 30  1  0
 12 23  4  0
 13 14  4  0
 13 15  1  0
 15 34  2  0
 18 28  1  0
 19 32  1  0
 21 28  1  0
 22 27  4  0
 22 29  4  0
 23 30  4  0
 25 32  4  0
 30 33  4  0
M  END
$$$$

 Created by Python create_sdf_string function

 34117  0  0  0  0  0  0  0  0999 V2000
   12.8054   -4.0491   21.7367 O   0  0  0  0  0  0  0  0  0  0  0  0
    8.3229   -7.0199   16.7898 N   0  0  0  0  0  0  0  0  0  0  0  0
   12.0481   -4.9959   21.8485 O   0  0  0  0  0  0  0  0  0  0  0  0
    4.7621  -10.7982   15.2038 O   0  0  0  0  0  0  0  0  0  0  0  0
    1.1391  -11.5052   21.2274 C   0  0  0  0  0  0  0  0  0  0  0  0
    5.0831   -8.4644   15.8982 Cl  0  0  0  0  0  0  0  0  0  0  0  0
    6.3321   -8.5171   15.4089 N   0  0  0  0  0  0  0  0  0  0  0  0
   10.9836   -6.4214   19.5036 C   0  0  0  0  0  0  0  0  0  0  0  0
    2.3095  -11.5853   19.3136 C   0  0  0  0  0  0  0  0  0  0  0  0
    1.5874   -9.4963   15.1297 S   0  0  0  0  0  0  0  0  0  0  0  0
   10.0933   -4.9103   17.6199 N   0  0  0  0  0  0  0  0  0  0  0  0
   11.0764   -6.7039   19.0419 C   0  0  0  0  0  0  0  0  0  0  0  0
    9.1677   -7.8249   17.9961 C   0  0  0  0  0  0  0  0  0  0  0  0
    5.5302   -9.4951   17.0415 C   0  0  0  0  0  0  0  0  0  0  0  0
   11.7793   -5.5860   21.3452 C   0  0  0  0  0  0  0  0  0  0  0  0
    2.0874  -11.5886   20.5051 S   0  0  0  0  0  0  0  0  0  0  0  0
    8.9549   -8.5560   15.2165 F   0  0  0  0  0  0  0  0  0  0  0  0
   -0.2812  -13.0639   20.4811 C   0  0  0  0  0  0  0  0  0  0  0  0
    2.5228   -9.9761   17.7395 C   0  0  0  0  0  0  0  0  0  0  0  0
    9.5993   -3.2792   16.7263 O   0  0  0  0  0  0  0  0  0  0  0  0
   11.5319   -4.4302   19.4122 N   0  0  0  0  0  0  0  0  0  0  0  0
    4.1621   -8.9836   15.6656 N   0  0  0  0  0  0  0  0  0  0  0  0
    0.0359  -12.5945   20.7540 C   0  0  0  0  0  0  0  0  0  0  0  0
    2.4925  -10.6097   18.5039 C   0  0  0  0  0  0  0  0  0  0  0  0
    2.5660   -8.4478   16.4299 O   0  0  0  0  0  0  0  0  0  0  0  0
   11.7135   -4.6427   20.0173 C   0  0  0  0  0  0  0  0  0  0  0  0
    4.0410  -10.8287   18.1970 O   0  0  0  0  0  0  0  0  0  0  0  0
    7.7219   -4.7593   16.0462 F   0  0  0  0  0  0  0  0  0  0  0  0
   10.6187   -3.7886   18.0493 He  0  0  0  0  0  0  0  0  0  0  0  0
    8.2611   -7.1605   19.0444 He  0  0  0  0  0  0  0  0  0  0  0  0
    9.6481   -3.4069   17.3823 He  0  0  0  0  0  0  0  0  0  0  0  0
    7.0652   -8.7439   18.1499 He  0  0  0  0  0  0  0  0  0  0  0  0
    6.2678   -7.5564   16.9068 He  0  0  0  0  0  0  0  0  0  0  0  0
   -0.0526  -12.0824   19.2696 He  0  0  0  0  0  0  0  0  0  0  0  0
  1  4  2  0
  1  7  4  0
  1 14  3  0
  1 15  4  0
  1 17  3  0
  1 18  4  0
  1 22  4  0
  2  6  3  0
  2 13  3  0
  2 16  1  0
  2 17  2  0
  2 19  2  0
  2 22  3  0
  2 24  1  0
  3  6  3  0
  3  8  3  0
  3 11  4  0
  3 14  3  0
  3 15  1  0
  3 22  2  0
  3 23  3  0
  3 26  3  0
  3 27  3  0
  4  6  2  0
  4  8  1  0
  4  9  2  0
  4 12  4  0
  4 13  2  0
  4 16  2  0
  4 17  4  0
  4 20  2  0
  4 25  3  0
  5 14  4  0
  5 17  1  0
  5 22  1  0
  5 23  4  0
  6  8  3  0
  6  9  2  0
  6 13  4  0
  6 15  3  0
  6 23  1  0
  6 24  2  0
  6 26  2  0
  6 27  3  0
  7  8  1  0
  7 11  3  0
  7 12  3  0
  7 13  3  0
  7 17  3  0
  7 19  2  0
  7 20  4  0
  7 23  3  0
  7 27  4  0
  7 28  1  0
  8 12  3  0
  8 17  4  0
  8 25  2  0
  8 26  1  0
  9 10  2  0
  9 12  3  0
  9 18  1  0
  9 23  1  0
  9 24  1  0
 10 13  4  0
 10 14  1  0
 10 15  1  0
 10 17  1  0
 10 18  2  0
 10 25  4  0
 10 26  3  0
 10 27  2  0
 11 12  4  0
 11 14  1  0
 11 17  4  0
 12 13  2  0
 12 18  4  0
 12 22  4  0
 12 25  1  0
 13 17  4  0
 13 20  2  0
 13 21  3  0
 13 22  1  0
 13 24  4  0
 13 25  4  0
 14 15  1  0
 14 18  1  0
 14 19  4  0
 14 21  4  0
 14 28  3  0
 15 21  4  0
 15 26  1  0
 15 28  4  0
 16 20  3  0
 16 24  4  0
 16 25  1  0
 17 19  3  0
 17 21  2  0
 17 26  1  0
 17 28  3  0
 18 22  1  0
 18 23  4  0
 18 27  1  0
 19 22  4  0
 19 24  4  0
 19 26  1  0
 20 25  3  0
 21 23  4  0
 21 24  3  0
 21 26  4  0
 22 24  2  0
 22 28  1  0
 23 25  1  0
 23 27  1  0
 24 27  4  0
 25 26  1  0
 26 28  1  0
 27 28  3  0
M  END
$$$$

 Created by Python create_sdf_string function

 34 30  0  0  0  0  0  0  0  0999 V2000
   12.9473   -3.9743   21.6965 O   0  0  0  0  0  0  0  0  0  0  0  0
    8.3556   -7.0837   16.8775 N   0  0  0  0  0  0  0  0  0  0  0  0
   11.7753   -5.2820   22.4062 O   0  0  0  0  0  0  0  0  0  0  0  0
    5.0947   -9.6064   15.5215 O   0  0  0  0  0  0  0  0  0  0  0  0
    1.2291  -11.8493   21.5460 C   0  0  0  0  0  0  0  0  0  0  0  0
    5.4621   -8.6540   15.9985 C   0  0  0  0  0  0  0  0  0  0  0  0
   10.6943   -3.9191   18.2114 C   0  0  0  0  0  0  0  0  0  0  0  0
    8.6586   -6.5320   17.4393 C   0  0  0  0  0  0  0  0  0  0  0  0
    6.5747   -8.6284   15.7027 C   0  0  0  0  0  0  0  0  0  0  0  0
   10.9847   -6.1874   19.8219 C   0  0  0  0  0  0  0  0  0  0  0  0
    1.8001  -11.4419   19.3015 C   0  0  0  0  0  0  0  0  0  0  0  0
    2.1197   -9.1846   16.0809 C   0  0  0  0  0  0  0  0  0  0  0  0
   10.0190   -5.0618   17.8972 C   0  0  0  0  0  0  0  0  0  0  0  0
   10.2212   -6.1793   18.6566 C   0  0  0  0  0  0  0  0  0  0  0  0
    9.4322   -4.1991   16.6331 C   0  0  0  0  0  0  0  0  0  0  0  0
    6.9587   -8.2438   17.5417 C   0  0  0  0  0  0  0  0  0  0  0  0
    9.0889   -7.9146   17.7786 C   0  0  0  0  0  0  0  0  0  0  0  0
    4.8502   -9.6683   17.4429 C   0  0  0  0  0  0  0  0  0  0  0  0
   12.0946   -4.7598   21.4948 C   0  0  0  0  0  0  0  0  0  0  0  0
    2.0624  -11.5382   20.6408 C   0  0  0  0  0  0  0  0  0  0  0  0
    8.0158   -8.2038   15.6121 C   0  0  0  0  0  0  0  0  0  0  0  0
   -0.2120  -12.6454   19.9697 C   0  0  0  0  0  0  0  0  0  0  0  0
    2.0917  -10.0627   17.2675 C   0  0  0  0  0  0  0  0  0  0  0  0
    9.6982   -3.4742   16.4953 O   0  0  0  0  0  0  0  0  0  0  0  0
   11.4028   -3.8367   19.4493 N   0  0  0  0  0  0  0  0  0  0  0  0
    4.2098   -9.0198   16.2327 N   0  0  0  0  0  0  0  0  0  0  0  0
    0.0426  -12.4782   21.2327 C   0  0  0  0  0  0  0  0  0  0  0  0
    6.4419   -7.6310   16.9552 C   0  0  0  0  0  0  0  0  0  0  0  0
    0.5756  -12.1256   19.0632 C   0  0  0  0  0  0  0  0  0  0  0  0
    2.5842  -10.7200   18.3333 C   0  0  0  0  0  0  0  0  0  0  0  0
    2.8684   -9.1053   16.2629 C   0  0  0  0  0  0  0  0  0  0  0  0
   11.4922   -4.9396   20.2030 C   0  0  0  0  0  0  0  0  0  0  0  0
    3.9008  -10.5673   18.4610 N   0  0  0  0  0  0  0  0  0  0  0  0
    8.1854   -4.9302   15.9190 O   0  0  0  0  0  0  0  0  0  0  0  0
  1 19  2  0
  2  8  1  0
  2 17  1  0
  2 21  1  0
  3 19  1  0
  5 20  4  0
  5 27  4  0
  6  9  1  0
  7 13  4  0
  7 25  4  0
  9 21  1  0
 10 14  4  0
 10 32  4  0
 11 20  4  0
 11 29  4  0
 11 30  1  0
 12 23  4  0
 12 31  4  0
 13 14  4  0
 15 24  1  0
 15 34  2  0
 16 28  1  0
 18 33  4  0
 19 32  1  0
 22 27  4  0
 22 29  4  0
 23 30  4  0
 23 31  4  0
 25 32  4  0
 30 33  4  0
M  END
$$$$

 Created by Python create_sdf_string function

 34 90  0  0  0  0  0  0  0  0999 V2000
   12.9265   -4.0122   21.1135 O   0  0  0  0  0  0  0  0  0  0  0  0
    7.9856   -6.4793   16.9231 N   0  0  0  0  0  0  0  0  0  0  0  0
    5.2984   -7.9133   15.3476 C   0  0  0  0  0  0  0  0  0  0  0  0
    0.7133  -11.9140   22.2023 C   0  0  0  0  0  0  0  0  0  0  0  0
    5.6082  -10.5741   15.0984 N   0  0  0  0  0  0  0  0  0  0  0  0
   11.2227   -3.5906   18.3540 C   0  0  0  0  0  0  0  0  0  0  0  0
    8.7596   -9.0972   14.2372 P   0  0  0  0  0  0  0  0  0  0  0  0
   10.8676   -6.6780   19.2224 C   0  0  0  0  0  0  0  0  0  0  0  0
    2.5557  -11.1024   20.0062 C   0  0  0  0  0  0  0  0  0  0  0  0
    9.9298   -5.2612   17.6390 C   0  0  0  0  0  0  0  0  0  0  0  0
   10.2874   -6.6783   17.8774 C   0  0  0  0  0  0  0  0  0  0  0  0
    7.6880   -4.0557   18.0637 P   0  0  0  0  0  0  0  0  0  0  0  0
    8.7177   -8.5965   18.6106 C   0  0  0  0  0  0  0  0  0  0  0  0
    3.8349   -9.4161   16.5984 Cl  0  0  0  0  0  0  0  0  0  0  0  0
    1.6976  -11.4204   21.1841 C   0  0  0  0  0  0  0  0  0  0  0  0
    8.8309   -6.6275   15.1238 Br  0  0  0  0  0  0  0  0  0  0  0  0
    0.3718  -12.4995   19.3956 C   0  0  0  0  0  0  0  0  0  0  0  0
    2.3327  -10.2215   17.4464 C   0  0  0  0  0  0  0  0  0  0  0  0
    9.5769   -4.0449   16.0795 O   0  0  0  0  0  0  0  0  0  0  0  0
   11.5108   -3.7354   18.9072 N   0  0  0  0  0  0  0  0  0  0  0  0
   -0.1856  -12.8187   20.7612 C   0  0  0  0  0  0  0  0  0  0  0  0
    0.4383  -12.4041   19.6705 C   0  0  0  0  0  0  0  0  0  0  0  0
    2.6620  -10.7486   18.8448 C   0  0  0  0  0  0  0  0  0  0  0  0
   11.5256   -5.0979   19.8671 F   0  0  0  0  0  0  0  0  0  0  0  0
    4.1002  -10.6920   18.5869 N   0  0  0  0  0  0  0  0  0  0  0  0
   12.0542   -5.4470   23.1626 He  0  0  0  0  0  0  0  0  0  0  0  0
   10.3547   -8.1620   16.9426 He  0  0  0  0  0  0  0  0  0  0  0  0
    1.7523   -8.3711   16.8194 He  0  0  0  0  0  0  0  0  0  0  0  0
    6.1363   -7.8379   17.4342 He  0  0  0  0  0  0  0  0  0  0  0  0
   11.9255   -4.8767   22.1090 He  0  0  0  0  0  0  0  0  0  0  0  0
    5.3398   -9.2867   16.2127 He  0  0  0  0  0  0  0  0  0  0  0  0
    7.1876   -8.4129   17.1166 He  0  0  0  0  0  0  0  0  0  0  0  0
    3.5535   -9.7242   16.6302 He  0  0  0  0  0  0  0  0  0  0  0  0
    8.1743   -4.8927   15.4445 He  0  0  0  0  0  0  0  0  0  0  0  0
  1  3  3  0
  1  6  4  0
  1  7  2  0
  1  8  4  0
  1 14  1  0
  1 16  1  0
  1 21  1  0
  2 12  4  0
  2 15  1  0
  2 16  2  0
  3  6  3  0
  3  7  1  0
  3  8  3  0
  3 11  3  0
  3 12  3  0
  3 15  1  0
  3 16  3  0
  3 18  1  0
  3 20  3  0
  3 22  3  0
  3 24  3  0
  3 25  3  0
  4 12  4  0
  4 15  4  0
  4 16  3  0
  4 17  3  0
  4 21  4  0
  5  7  4  0
  5  8  4  0
  5 16  1  0
  5 17  4  0
  5 19  1  0
  5 25  1  0
  6 10  4  0
  6 20  4  0
  6 21  1  0
  6 22  1  0
  7  8  4  0
  7  9  1  0
  7 10  1  0
  7 11  4  0
  7 12  3  0
  7 13  3  0
  7 18  3  0
  7 20  2  0
  7 21  2  0
  7 22  4  0
  7 23  3  0
  7 24  4  0
  8 11  4  0
  8 16  2  0
  8 17  3  0
  8 24  4  0
  9 15  4  0
  9 22  4  0
 10 11  4  0
 10 13  4  0
 10 14  3  0
 10 16  1  0
 10 19  1  0
 11 13  2  0
 11 14  4  0
 11 15  3  0
 11 16  1  0
 12 14  4  0
 12 17  1  0
 12 19  3  0
 12 23  4  0
 13 17  2  0
 13 24  1  0
 14 15  2  0
 14 16  3  0
 14 20  4  0
 14 22  2  0
 14 24  1  0
 15 24  4  0
 16 19  4  0
 16 20  1  0
 16 22  4  0
 16 25  2  0
 17 20  4  0
 17 21  4  0
 17 22  2  0
 18 21  1  0
 19 22  1  0
 21 24  2  0
 21 25  3  0
 23 24  1  0
 23 25  4  0
 24 25  2  0
M  END
$$$$

 Created by Python create_sdf_string function

 34 27  0  0  0  0  0  0  0  0999 V2000
   12.8093   -4.0840   21.5356 O   0  0  0  0  0  0  0  0  0  0  0  0
    7.9694   -6.5022   16.9760 N   0  0  0  0  0  0  0  0  0  0  0  0
   11.5890   -5.4224   22.4526 O   0  0  0  0  0  0  0  0  0  0  0  0
    5.7955   -8.1507   15.7532 C   0  0  0  0  0  0  0  0  0  0  0  0
    0.8074  -12.0401   21.8245 C   0  0  0  0  0  0  0  0  0  0  0  0
    5.7386   -9.6666   15.5844 C   0  0  0  0  0  0  0  0  0  0  0  0
   10.7934   -3.7998   18.1592 C   0  0  0  0  0  0  0  0  0  0  0  0
    9.0398   -7.6711   17.3817 C   0  0  0  0  0  0  0  0  0  0  0  0
    7.6713   -8.6588   15.2653 C   0  0  0  0  0  0  0  0  0  0  0  0
   10.8585   -6.1672   19.5805 C   0  0  0  0  0  0  0  0  0  0  0  0
    1.9113  -11.4713   19.7941 C   0  0  0  0  0  0  0  0  0  0  0  0
    2.5365   -9.3250   16.7672 C   0  0  0  0  0  0  0  0  0  0  0  0
   10.1621   -4.8486   17.6990 C   0  0  0  0  0  0  0  0  0  0  0  0
   10.2323   -6.0936   18.3749 C   0  0  0  0  0  0  0  0  0  0  0  0
    8.7214   -5.0960   16.2478 C   0  0  0  0  0  0  0  0  0  0  0  0
    6.4432   -7.9704   17.2796 C   0  0  0  0  0  0  0  0  0  0  0  0
    8.8642   -8.2151   18.2563 C   0  0  0  0  0  0  0  0  0  0  0  0
    4.0011   -9.3551   16.8684 C   0  0  0  0  0  0  0  0  0  0  0  0
   11.9668   -4.9046   21.3989 C   0  0  0  0  0  0  0  0  0  0  0  0
    1.8281  -11.5480   21.1514 C   0  0  0  0  0  0  0  0  0  0  0  0
    8.1184   -7.1796   15.8102 C   0  0  0  0  0  0  0  0  0  0  0  0
   -0.0608  -12.6481   19.7539 C   0  0  0  0  0  0  0  0  0  0  0  0
    2.0088  -10.1308   17.5208 C   0  0  0  0  0  0  0  0  0  0  0  0
    9.5279   -4.1867   16.2391 O   0  0  0  0  0  0  0  0  0  0  0  0
   11.3685   -3.8698   19.4058 N   0  0  0  0  0  0  0  0  0  0  0  0
    5.3866   -9.0911   16.3103 C   0  0  0  0  0  0  0  0  0  0  0  0
   -0.1180  -12.6338   21.0860 C   0  0  0  0  0  0  0  0  0  0  0  0
    7.0652   -8.3034   17.0923 C   0  0  0  0  0  0  0  0  0  0  0  0
    0.8317  -12.1410   19.1917 C   0  0  0  0  0  0  0  0  0  0  0  0
    2.6203  -10.8956   18.8216 C   0  0  0  0  0  0  0  0  0  0  0  0
    3.8344   -9.6152   17.0840 C   0  0  0  0  0  0  0  0  0  0  0  0
   11.3904   -5.0456   20.0926 C   0  0  0  0  0  0  0  0  0  0  0  0
    3.8160  -10.6572   18.6772 N   0  0  0  0  0  0  0  0  0  0  0  0
    7.7963   -5.0838   15.5341 O   0  0  0  0  0  0  0  0  0  0  0  0
  1 19  2  0
  2 15  1  0
  2 21  1  0
  3 19  1  0
  5 20  4  0
  5 27  4  0
  7 13  4  0
  7 25  4  0
  8 17  1  0
 10 14  4  0
 10 32  4  0
 11 20  4  0
 11 29  4  0
 11 30  1  0
 12 23  4  0
 13 14  4  0
 13 24  1  0
 15 24  1  0
 15 34  2  0
 16 28  1  0
 18 31  4  0
 19 32  1  0
 22 27  4  0
 22 29  4  0
 23 30  4  0
 25 32  4  0
 30 33  4  0
M  END
$$$$

 Created by Python create_sdf_string function

 34 64  0  0  0  0  0  0  0  0999 V2000
   12.3040   -4.3714   21.5181 O   0  0  0  0  0  0  0  0  0  0  0  0
    7.3221   -6.1518   17.6364 C   0  0  0  0  0  0  0  0  0  0  0  0
   11.5675   -5.4967   22.9975 O   0  0  0  0  0  0  0  0  0  0  0  0
    1.3321  -11.7491   21.9432 C   0  0  0  0  0  0  0  0  0  0  0  0
    7.2995   -8.9239   13.7996 C   0  0  0  0  0  0  0  0  0  0  0  0
   11.2409   -3.5684   17.9855 C   0  0  0  0  0  0  0  0  0  0  0  0
    7.4478   -9.5372   14.1814 C   0  0  0  0  0  0  0  0  0  0  0  0
   10.7826   -6.0631   19.6133 C   0  0  0  0  0  0  0  0  0  0  0  0
    2.0861  -12.0029   19.5145 C   0  0  0  0  0  0  0  0  0  0  0  0
    2.3638   -8.9341   16.7076 C   0  0  0  0  0  0  0  0  0  0  0  0
    9.7386   -4.6756   17.2184 C   0  0  0  0  0  0  0  0  0  0  0  0
    9.0606   -8.7658   18.0232 O   0  0  0  0  0  0  0  0  0  0  0  0
    1.9113  -11.5204   21.4510 C   0  0  0  0  0  0  0  0  0  0  0  0
    8.2332   -5.4534   16.9709 B   0  0  0  0  0  0  0  0  0  0  0  0
   -0.5878  -12.8880   20.2906 C   0  0  0  0  0  0  0  0  0  0  0  0
    2.4503  -10.4367   17.6420 C   0  0  0  0  0  0  0  0  0  0  0  0
    9.5252   -3.9493   17.4211 O   0  0  0  0  0  0  0  0  0  0  0  0
    5.9958   -8.6460   16.8884 O   0  0  0  0  0  0  0  0  0  0  0  0
   -0.0948  -12.8964   20.4700 C   0  0  0  0  0  0  0  0  0  0  0  0
    0.7964  -12.4043   19.0317 C   0  0  0  0  0  0  0  0  0  0  0  0
   10.9993   -5.2631   20.0203 C   0  0  0  0  0  0  0  0  0  0  0  0
    2.9693  -10.7154   19.1600 N   0  0  0  0  0  0  0  0  0  0  0  0
    4.6816   -8.4093   15.9301 He  0  0  0  0  0  0  0  0  0  0  0  0
    8.4078   -7.8083   15.8762 He  0  0  0  0  0  0  0  0  0  0  0  0
   10.1692   -6.3920   18.1948 He  0  0  0  0  0  0  0  0  0  0  0  0
    8.7475   -6.3094   15.4008 He  0  0  0  0  0  0  0  0  0  0  0  0
    6.7734   -9.8502   15.7452 He  0  0  0  0  0  0  0  0  0  0  0  0
    4.5597   -8.3377   16.8553 He  0  0  0  0  0  0  0  0  0  0  0  0
   12.2125   -4.9865   21.5577 He  0  0  0  0  0  0  0  0  0  0  0  0
   12.1425   -2.9816   19.3819 He  0  0  0  0  0  0  0  0  0  0  0  0
    7.8232   -7.2403   15.9012 He  0  0  0  0  0  0  0  0  0  0  0  0
    2.1258  -10.8504   18.4943 He  0  0  0  0  0  0  0  0  0  0  0  0
    4.3528  -11.1727   18.2210 He  0  0  0  0  0  0  0  0  0  0  0  0
    7.3463   -5.0905   15.8788 He  0  0  0  0  0  0  0  0  0  0  0  0
  1  4  4  0
  1  5  3  0
  1 10  1  0
  1 11  1  0
  1 17  4  0
  1 21  1  0
  2  6  1  0
  2 21  4  0
  3 12  1  0
  3 15  3  0
  3 19  2  0
  4 13  4  0
  4 18  1  0
  4 19  4  0
  4 21  1  0
  5  8  2  0
  5  9  1  0
  5 11  4  0
  5 13  2  0
  5 16  4  0
  5 18  1  0
  5 20  2  0
  5 22  2  0
  6 10  4  0
  6 11  4  0
  6 13  1  0
  6 15  2  0
  6 20  3  0
  7  8  2  0
  7  9  3  0
  7 10  2  0
  7 11  4  0
  7 13  4  0
  7 14  4  0
  7 18  3  0
  7 22  2  0
  8 10  2  0
  8 14  3  0
  9 13  4  0
  9 20  1  0
  9 22  3  0
 10 11  1  0
 10 12  1  0
 10 15  3  0
 10 19  1  0
 10 20  4  0
 10 21  2  0
 11 13  3  0
 11 14  1  0
 11 18  1  0
 11 20  3  0
 13 14  4  0
 13 18  1  0
 14 19  1  0
 14 20  1  0
 14 21  3  0
 15 18  1  0
 15 19  4  0
 15 20  4  0
 15 21  4  0
 16 18  3  0
 17 19  1  0
 17 22  4  0
 18 22  3  0
M  END
$$$$

 Created by Python create_sdf_string function

 34 25  0  0  0  0  0  0  0  0999 V2000
   12.6131   -4.2452   21.8025 O   0  0  0  0  0  0  0  0  0  0  0  0
    7.2376   -6.3061   17.7273 C   0  0  0  0  0  0  0  0  0  0  0  0
   11.4131   -5.4465   22.5687 O   0  0  0  0  0  0  0  0  0  0  0  0
    4.9031   -8.7690   16.4368 C   0  0  0  0  0  0  0  0  0  0  0  0
    0.9834  -12.1331   21.7382 C   0  0  0  0  0  0  0  0  0  0  0  0
    7.0291   -8.6683   15.4495 C   0  0  0  0  0  0  0  0  0  0  0  0
   10.7862   -3.5845   18.3069 C   0  0  0  0  0  0  0  0  0  0  0  0
    8.0742   -7.6570   16.2087 C   0  0  0  0  0  0  0  0  0  0  0  0
    7.1280   -9.1763   15.3486 C   0  0  0  0  0  0  0  0  0  0  0  0
   10.7783   -5.9260   19.8187 C   0  0  0  0  0  0  0  0  0  0  0  0
    1.6544  -11.6520   19.5675 C   0  0  0  0  0  0  0  0  0  0  0  0
    2.9008   -9.3464   16.8329 C   0  0  0  0  0  0  0  0  0  0  0  0
   10.0430   -4.7795   17.8147 C   0  0  0  0  0  0  0  0  0  0  0  0
   10.1868   -5.9381   18.6425 C   0  0  0  0  0  0  0  0  0  0  0  0
    8.3640   -6.5380   16.1363 C   0  0  0  0  0  0  0  0  0  0  0  0
    6.4862   -9.3410   16.0187 C   0  0  0  0  0  0  0  0  0  0  0  0
    8.8666   -8.3828   17.6591 O   0  0  0  0  0  0  0  0  0  0  0  0
    4.4620   -9.1352   16.9574 C   0  0  0  0  0  0  0  0  0  0  0  0
   11.8441   -4.8260   21.6800 C   0  0  0  0  0  0  0  0  0  0  0  0
    1.8405  -11.7278   20.9084 C   0  0  0  0  0  0  0  0  0  0  0  0
    8.6655   -5.7009   16.6900 C   0  0  0  0  0  0  0  0  0  0  0  0
   -0.2725  -12.9079   19.9248 C   0  0  0  0  0  0  0  0  0  0  0  0
    2.1317  -10.1659   17.5245 C   0  0  0  0  0  0  0  0  0  0  0  0
    9.4627   -4.1279   16.5183 O   0  0  0  0  0  0  0  0  0  0  0  0
   11.3540   -3.6732   19.5440 C   0  0  0  0  0  0  0  0  0  0  0  0
    6.1629   -8.2522   17.1759 C   0  0  0  0  0  0  0  0  0  0  0  0
   -0.1197  -12.7483   21.2023 C   0  0  0  0  0  0  0  0  0  0  0  0
    7.5896   -7.5082   16.2035 C   0  0  0  0  0  0  0  0  0  0  0  0
    0.5701  -12.3799   19.0399 C   0  0  0  0  0  0  0  0  0  0  0  0
    2.4996  -10.9208   18.6160 C   0  0  0  0  0  0  0  0  0  0  0  0
    4.5418  -10.4129   18.2213 C   0  0  0  0  0  0  0  0  0  0  0  0
   11.2985   -4.7867   20.2242 C   0  0  0  0  0  0  0  0  0  0  0  0
    3.7978  -10.9341   18.8125 N   0  0  0  0  0  0  0  0  0  0  0  0
    7.4982   -5.3073   15.7782 O   0  0  0  0  0  0  0  0  0  0  0  0
  1 19  2  0
  3 19  1  0
  4 18  1  0
  5 20  4  0
  5 27  4  0
  7 13  4  0
  7 25  4  0
  9 16  1  0
 10 14  4  0
 10 32  4  0
 11 20  4  0
 11 29  4  0
 11 30  1  0
 12 18  4  0
 12 23  4  0
 13 14  4  0
 13 21  1  0
 13 24  1  0
 19 32  1  0
 22 27  4  0
 22 29  4  0
 23 30  4  0
 25 32  4  0
 30 33  4  0
 31 33  4  0
M  END
$$$$

 Created by Python create_sdf_string function

 34104  0  0  0  0  0  0  0  0999 V2000
   12.1112   -4.1753   22.3537 O   0  0  0  0  0  0  0  0  0  0  0  0
    7.1942   -6.2603   17.5844 N   0  0  0  0  0  0  0  0  0  0  0  0
   11.8167   -5.1777   22.9877 O   0  0  0  0  0  0  0  0  0  0  0  0
    5.4582   -8.9017   15.3661 C   0  0  0  0  0  0  0  0  0  0  0  0
    0.6596  -12.4762   22.0917 F   0  0  0  0  0  0  0  0  0  0  0  0
   10.9350   -3.9803   18.3554 C   0  0  0  0  0  0  0  0  0  0  0  0
    8.0389   -9.1181   17.0049 C   0  0  0  0  0  0  0  0  0  0  0  0
    7.4926   -8.3992   15.4758 O   0  0  0  0  0  0  0  0  0  0  0  0
   10.9848   -6.2598   19.7335 O   0  0  0  0  0  0  0  0  0  0  0  0
    1.8341  -11.8429   19.6906 N   0  0  0  0  0  0  0  0  0  0  0  0
   10.1551   -4.9771   17.6840 C   0  0  0  0  0  0  0  0  0  0  0  0
    9.6193   -5.7157   17.7291 C   0  0  0  0  0  0  0  0  0  0  0  0
    8.3834   -5.5418   17.4785 F   0  0  0  0  0  0  0  0  0  0  0  0
    7.4039   -9.4743   15.4831 C   0  0  0  0  0  0  0  0  0  0  0  0
    8.7369   -8.1498   18.1453 O   0  0  0  0  0  0  0  0  0  0  0  0
   12.2025   -4.5800   22.1349 C   0  0  0  0  0  0  0  0  0  0  0  0
    2.0000  -11.9919   21.7886 C   0  0  0  0  0  0  0  0  0  0  0  0
    0.2043  -12.5054   20.4486 C   0  0  0  0  0  0  0  0  0  0  0  0
    2.0461   -9.7663   17.2590 C   0  0  0  0  0  0  0  0  0  0  0  0
    9.6860   -4.1608   16.0649 O   0  0  0  0  0  0  0  0  0  0  0  0
   10.9274   -3.6704   18.8197 C   0  0  0  0  0  0  0  0  0  0  0  0
    6.8632   -7.5073   18.1608 S   0  0  0  0  0  0  0  0  0  0  0  0
    0.3821  -12.6816   21.3130 C   0  0  0  0  0  0  0  0  0  0  0  0
    5.6980   -9.1472   15.1668 F   0  0  0  0  0  0  0  0  0  0  0  0
    1.0215  -12.1330   19.2785 C   0  0  0  0  0  0  0  0  0  0  0  0
    1.9718  -10.6144   17.7027 C   0  0  0  0  0  0  0  0  0  0  0  0
    4.4575  -11.8261   19.8742 P   0  0  0  0  0  0  0  0  0  0  0  0
   10.9188   -5.0996   20.5166 C   0  0  0  0  0  0  0  0  0  0  0  0
    3.3018  -10.1085   18.7477 N   0  0  0  0  0  0  0  0  0  0  0  0
    6.7781   -8.5850   15.3045 He  0  0  0  0  0  0  0  0  0  0  0  0
    1.4887   -9.8721   17.0412 He  0  0  0  0  0  0  0  0  0  0  0  0
    5.3070   -8.9620   16.0077 He  0  0  0  0  0  0  0  0  0  0  0  0
    8.6060   -6.9491   17.9505 He  0  0  0  0  0  0  0  0  0  0  0  0
    7.1972   -5.8552   15.7843 He  0  0  0  0  0  0  0  0  0  0  0  0
  1  3  4  0
  1  7  3  0
  1 16  2  0
  1 22  1  0
  1 27  2  0
  1 28  1  0
  2  3  3  0
  2  4  2  0
  2  6  3  0
  2  8  1  0
  2 22  3  0
  3 16  1  0
  3 22  1  0
  3 23  2  0
  4  6  4  0
  4  8  2  0
  4  9  1  0
  4 10  3  0
  4 11  1  0
  4 16  3  0
  4 22  2  0
  4 26  1  0
  5 12  2  0
  5 14  3  0
  5 17  1  0
  5 23  4  0
  5 26  4  0
  5 29  2  0
  6  7  4  0
  6  8  4  0
  6 11  4  0
  6 13  4  0
  6 14  1  0
  6 21  4  0
  6 22  3  0
  6 29  4  0
  7  9  4  0
  7 13  3  0
  7 15  3  0
  7 16  1  0
  7 21  4  0
  7 24  3  0
  7 25  2  0
  8  9  1  0
  8 10  4  0
  8 12  2  0
  8 13  2  0
  8 15  1  0
  8 16  4  0
  8 17  1  0
  8 27  3  0
  8 28  1  0
  9 12  2  0
  9 28  4  0
 10 14  1  0
 10 17  4  0
 10 18  3  0
 10 20  2  0
 10 22  2  0
 10 25  4  0
 10 27  4  0
 11 12  3  0
 11 13  3  0
 11 20  1  0
 11 24  4  0
 11 27  1  0
 12 15  3  0
 12 18  3  0
 12 22  1  0
 12 24  3  0
 13 18  1  0
 13 21  2  0
 13 24  2  0
 14 15  1  0
 14 16  1  0
 14 20  2  0
 14 21  1  0
 14 24  4  0
 14 25  2  0
 14 26  3  0
 15 20  1  0
 15 25  3  0
 16 19  2  0
 16 28  1  0
 16 29  3  0
 17 21  3  0
 17 28  2  0
 18 23  4  0
 18 25  2  0
 18 26  3  0
 19 24  1  0
 19 26  4  0
 19 27  1  0
 20 22  2  0
 20 23  3  0
 20 29  1  0
 21 22  1  0
 21 25  1  0
 21 27  1  0
 22 28  4  0
 22 29  2  0
 23 24  4  0
 26 29  1  0
 27 29  1  0
M  END
$$$$

 Created by Python create_sdf_string function

 34 26  0  0  0  0  0  0  0  0999 V2000
   12.2353   -3.7498   22.0766 O   0  0  0  0  0  0  0  0  0  0  0  0
    6.9878   -6.4838   17.6690 N   0  0  0  0  0  0  0  0  0  0  0  0
   11.5940   -5.4823   22.5924 O   0  0  0  0  0  0  0  0  0  0  0  0
    4.6110   -9.0443   16.4900 C   0  0  0  0  0  0  0  0  0  0  0  0
    1.0162  -12.4855   22.0502 C   0  0  0  0  0  0  0  0  0  0  0  0
    6.4842   -8.4822   15.8783 C   0  0  0  0  0  0  0  0  0  0  0  0
   10.8206   -3.6578   18.2626 C   0  0  0  0  0  0  0  0  0  0  0  0
    7.7408   -8.3124   17.0264 C   0  0  0  0  0  0  0  0  0  0  0  0
    7.3390   -8.1303   16.0292 C   0  0  0  0  0  0  0  0  0  0  0  0
   10.4714   -5.9349   19.7874 C   0  0  0  0  0  0  0  0  0  0  0  0
    1.9690  -11.7148   19.9445 C   0  0  0  0  0  0  0  0  0  0  0  0
    2.2340   -9.6578   16.8815 C   0  0  0  0  0  0  0  0  0  0  0  0
   10.1020   -4.6351   17.7365 C   0  0  0  0  0  0  0  0  0  0  0  0
    9.8611   -5.7768   18.4134 C   0  0  0  0  0  0  0  0  0  0  0  0
    8.5874   -5.6075   16.7964 C   0  0  0  0  0  0  0  0  0  0  0  0
    6.7102   -9.0840   15.6653 C   0  0  0  0  0  0  0  0  0  0  0  0
    9.0256   -8.1070   18.2679 O   0  0  0  0  0  0  0  0  0  0  0  0
    4.6916   -9.0472   16.6192 C   0  0  0  0  0  0  0  0  0  0  0  0
   11.6504   -4.7343   21.7083 C   0  0  0  0  0  0  0  0  0  0  0  0
    2.0798  -12.0435   21.2908 C   0  0  0  0  0  0  0  0  0  0  0  0
    8.7210   -7.0033   17.6304 C   0  0  0  0  0  0  0  0  0  0  0  0
   -0.1355  -12.6251   20.1034 C   0  0  0  0  0  0  0  0  0  0  0  0
    2.2348   -9.7456   16.9700 C   0  0  0  0  0  0  0  0  0  0  0  0
    9.5818   -4.3168   16.3423 O   0  0  0  0  0  0  0  0  0  0  0  0
   11.2363   -3.7512   19.5271 C   0  0  0  0  0  0  0  0  0  0  0  0
    6.3272   -7.7359   17.6333 C   0  0  0  0  0  0  0  0  0  0  0  0
   -0.0319  -12.7997   21.3568 C   0  0  0  0  0  0  0  0  0  0  0  0
    5.5355   -9.1775   15.7045 C   0  0  0  0  0  0  0  0  0  0  0  0
    0.7969  -12.0228   19.3823 C   0  0  0  0  0  0  0  0  0  0  0  0
    2.3876  -10.5324   18.0254 C   0  0  0  0  0  0  0  0  0  0  0  0
    3.2251  -11.1624   19.0528 C   0  0  0  0  0  0  0  0  0  0  0  0
   11.1199   -4.8396   20.3285 C   0  0  0  0  0  0  0  0  0  0  0  0
    3.8305  -10.3302   18.3875 N   0  0  0  0  0  0  0  0  0  0  0  0
    7.3589   -5.6416   15.7508 O   0  0  0  0  0  0  0  0  0  0  0  0
  1 19  2  0
  2 26  1  0
  3 19  1  0
  4 18  4  0
  5 20  4  0
  5 27  4  0
  7 13  4  0
  7 25  4  0
 10 14  4  0
 10 32  4  0
 11 20  4  0
 11 29  4  0
 11 31  4  0
 12 23  4  0
 13 14  4  0
 13 24  1  0
 14 21  1  0
 16 28  4  0
 17 21  2  0
 19 32  1  0
 22 27  4  0
 22 29  4  0
 23 30  4  0
 25 32  4  0
 30 31  4  0
 31 33  4  0
M  END
$$$$

 Created by Python create_sdf_string function

 34 88  0  0  0  0  0  0  0  0999 V2000
    7.5622   -6.4562   17.1311 F   0  0  0  0  0  0  0  0  0  0  0  0
   12.0299   -5.5185   22.9827 Br  0  0  0  0  0  0  0  0  0  0  0  0
    3.7445   -9.0289   17.0361 S   0  0  0  0  0  0  0  0  0  0  0  0
    0.9559  -11.6451   22.9083 C   0  0  0  0  0  0  0  0  0  0  0  0
    6.2993   -8.2593   18.3248 C   0  0  0  0  0  0  0  0  0  0  0  0
    9.8040   -6.2395   19.4314 C   0  0  0  0  0  0  0  0  0  0  0  0
    2.4309  -10.9540   19.4517 C   0  0  0  0  0  0  0  0  0  0  0  0
    2.1192   -9.5308   16.9056 C   0  0  0  0  0  0  0  0  0  0  0  0
   10.7272   -4.1742   17.0964 C   0  0  0  0  0  0  0  0  0  0  0  0
    9.5284   -5.8587   18.3060 C   0  0  0  0  0  0  0  0  0  0  0  0
    6.1304   -8.5711   15.7336 O   0  0  0  0  0  0  0  0  0  0  0  0
    8.8223   -8.3023   17.7734 O   0  0  0  0  0  0  0  0  0  0  0  0
    4.4232   -9.5617   16.0805 P   0  0  0  0  0  0  0  0  0  0  0  0
   12.0541   -4.1424   22.0208 C   0  0  0  0  0  0  0  0  0  0  0  0
    2.5225  -11.8157   21.0821 C   0  0  0  0  0  0  0  0  0  0  0  0
   -0.5318  -13.1855   19.7560 C   0  0  0  0  0  0  0  0  0  0  0  0
    9.8917   -4.0719   16.3508 O   0  0  0  0  0  0  0  0  0  0  0  0
   11.4825   -3.9344   19.4256 C   0  0  0  0  0  0  0  0  0  0  0  0
    6.2861   -8.1304   18.0837 P   0  0  0  0  0  0  0  0  0  0  0  0
    0.4434  -13.2278   21.3225 C   0  0  0  0  0  0  0  0  0  0  0  0
    5.2647   -8.0949   14.4080 N   0  0  0  0  0  0  0  0  0  0  0  0
    1.1207  -12.0017   19.5994 C   0  0  0  0  0  0  0  0  0  0  0  0
    2.3909  -10.8791   17.7184 C   0  0  0  0  0  0  0  0  0  0  0  0
   11.2151   -5.1237   19.9551 C   0  0  0  0  0  0  0  0  0  0  0  0
   12.3891   -3.7426   22.2817 He  0  0  0  0  0  0  0  0  0  0  0  0
    6.1496   -9.0564   16.3775 He  0  0  0  0  0  0  0  0  0  0  0  0
   11.2200   -3.9917   18.1553 He  0  0  0  0  0  0  0  0  0  0  0  0
    8.3869   -8.6704   16.5448 He  0  0  0  0  0  0  0  0  0  0  0  0
    6.7165   -7.2446   16.4038 He  0  0  0  0  0  0  0  0  0  0  0  0
   11.1811   -6.0678   17.3032 He  0  0  0  0  0  0  0  0  0  0  0  0
    2.1543  -10.5099   16.8609 He  0  0  0  0  0  0  0  0  0  0  0  0
    3.2531  -10.2442   18.3930 He  0  0  0  0  0  0  0  0  0  0  0  0
    3.6263  -10.4060   18.6288 He  0  0  0  0  0  0  0  0  0  0  0  0
    7.4036   -5.9400   15.7454 He  0  0  0  0  0  0  0  0  0  0  0  0
  1  8  1  0
  1 21  2  0
  2  5  4  0
  2  6  4  0
  2  7  1  0
  2 10  2  0
  2 13  4  0
  2 14  1  0
  2 17  1  0
  2 19  2  0
  2 21  4  0
  2 22  2  0
  3  6  2  0
  3  7  1  0
  3  9  1  0
  3 11  2  0
  3 13  4  0
  3 16  3  0
  3 19  2  0
  3 21  3  0
  3 22  1  0
  4  8  4  0
  4 13  4  0
  4 15  2  0
  5  7  2  0
  5 10  2  0
  5 11  1  0
  5 13  3  0
  5 17  3  0
  5 19  2  0
  5 23  1  0
  6  8  3  0
  6 10  4  0
  6 13  1  0
  6 20  3  0
  6 24  4  0
  7  8  4  0
  7  9  4  0
  7 10  1  0
  7 15  4  0
  7 19  2  0
  7 22  4  0
  7 24  2  0
  8 13  2  0
  8 17  2  0
  8 19  2  0
  8 20  2  0
  8 21  2  0
  8 23  2  0
  8 24  1  0
  9 10  4  0
  9 16  1  0
  9 19  3  0
  9 21  3  0
  9 24  1  0
 10 12  1  0
 10 15  2  0
 10 17  4  0
 10 18  4  0
 10 21  1  0
 11 12  2  0
 11 14  4  0
 11 16  3  0
 11 18  3  0
 11 21  4  0
 11 23  3  0
 12 13  4  0
 12 19  1  0
 12 21  4  0
 12 22  2  0
 13 17  3  0
 13 18  4  0
 13 22  3  0
 13 24  1  0
 14 15  4  0
 14 23  1  0
 14 24  1  0
 15 17  1  0
 15 21  3  0
 16 19  3  0
 16 20  4  0
 16 21  2  0
 16 22  1  0
 17 21  1  0
 17 22  2  0
 18 23  3  0
 18 24  4  0
 20 21  2  0
M  END
$$$$

 Created by Python create_sdf_string function

 34 28  0  0  0  0  0  0  0  0999 V2000
   12.2859   -3.6436   21.9812 O   0  0  0  0  0  0  0  0  0  0  0  0
    7.7343   -6.2709   17.0317 C   0  0  0  0  0  0  0  0  0  0  0  0
   11.4391   -5.3473   22.5365 O   0  0  0  0  0  0  0  0  0  0  0  0
    4.0939   -9.5243   17.1336 C   0  0  0  0  0  0  0  0  0  0  0  0
    1.1918  -12.1158   22.0430 C   0  0  0  0  0  0  0  0  0  0  0  0
    6.0099   -8.6271   16.6491 C   0  0  0  0  0  0  0  0  0  0  0  0
   11.1390   -3.6970   18.1567 C   0  0  0  0  0  0  0  0  0  0  0  0
    6.4140   -8.4895   17.8785 C   0  0  0  0  0  0  0  0  0  0  0  0
    8.1679   -8.2762   16.6263 C   0  0  0  0  0  0  0  0  0  0  0  0
   10.3773   -5.9036   19.6446 C   0  0  0  0  0  0  0  0  0  0  0  0
    1.8761  -11.5810   19.8085 C   0  0  0  0  0  0  0  0  0  0  0  0
    2.4818   -9.4661   16.3343 C   0  0  0  0  0  0  0  0  0  0  0  0
   10.3769   -4.6040   17.5349 C   0  0  0  0  0  0  0  0  0  0  0  0
    9.9333   -5.8598   18.3692 C   0  0  0  0  0  0  0  0  0  0  0  0
    6.8125   -7.1550   16.4606 C   0  0  0  0  0  0  0  0  0  0  0  0
    6.2372   -8.3662   15.8417 C   0  0  0  0  0  0  0  0  0  0  0  0
    8.9240   -7.8009   17.9019 O   0  0  0  0  0  0  0  0  0  0  0  0
    4.0848   -9.1586   16.4890 C   0  0  0  0  0  0  0  0  0  0  0  0
   11.6455   -4.6435   21.6264 C   0  0  0  0  0  0  0  0  0  0  0  0
    2.1047  -11.5561   21.0601 C   0  0  0  0  0  0  0  0  0  0  0  0
    9.2732   -5.8781   17.3214 C   0  0  0  0  0  0  0  0  0  0  0  0
    0.0574  -12.9171   20.1626 C   0  0  0  0  0  0  0  0  0  0  0  0
    1.8468  -10.0703   16.9586 N   0  0  0  0  0  0  0  0  0  0  0  0
    9.7988   -4.3642   16.3083 O   0  0  0  0  0  0  0  0  0  0  0  0
   11.4081   -3.8705   19.4306 C   0  0  0  0  0  0  0  0  0  0  0  0
    6.7266   -8.2060   17.9070 C   0  0  0  0  0  0  0  0  0  0  0  0
    0.2233  -12.8809   21.4456 C   0  0  0  0  0  0  0  0  0  0  0  0
    5.2903   -8.1896   15.3878 C   0  0  0  0  0  0  0  0  0  0  0  0
    0.8363  -12.2424   19.2912 C   0  0  0  0  0  0  0  0  0  0  0  0
    2.2639  -10.5921   18.0079 C   0  0  0  0  0  0  0  0  0  0  0  0
    3.0859  -10.7092   18.7351 N   0  0  0  0  0  0  0  0  0  0  0  0
   11.1439   -4.8685   20.2593 C   0  0  0  0  0  0  0  0  0  0  0  0
    3.7795  -10.3406   18.5456 N   0  0  0  0  0  0  0  0  0  0  0  0
    7.6047   -5.8171   15.7987 O   0  0  0  0  0  0  0  0  0  0  0  0
  1 19  2  0
  2 15  1  0
  3 19  1  0
  4 18  4  0
  4 33  4  0
  5 20  4  0
  5 27  4  0
  6  8  1  0
  7 13  4  0
  7 25  4  0
  8 26  1  0
  9 17  1  0
 10 14  4  0
 10 32  4  0
 11 20  4  0
 11 29  4  0
 12 23  4  0
 13 14  4  0
 13 24  1  0
 14 21  4  0
 16 28  4  0
 19 32  1  0
 22 27  4  0
 22 29  4  0
 23 30  4  0
 25 32  4  0
 30 31  4  0
 31 33  4  0
M  END
$$$$

 Created by Python create_sdf_string function

 34 32  0  0  0  0  0  0  0  0999 V2000
   11.8832   -3.4587   21.8310 O   0  0  0  0  0  0  0  0  0  0  0  0
    6.6944   -6.6222   16.8348 C   0  0  0  0  0  0  0  0  0  0  0  0
   12.0204   -4.8261   21.9580 O   0  0  0  0  0  0  0  0  0  0  0  0
    5.4846   -8.6685   16.5175 I   0  0  0  0  0  0  0  0  0  0  0  0
   10.9140   -3.9283   18.1097 F   0  0  0  0  0  0  0  0  0  0  0  0
    5.8809   -8.7507   17.4344 S   0  0  0  0  0  0  0  0  0  0  0  0
   10.0197   -6.0872   20.3629 C   0  0  0  0  0  0  0  0  0  0  0  0
    2.7319  -11.3123   20.1811 C   0  0  0  0  0  0  0  0  0  0  0  0
    9.9826   -4.3371   17.5023 C   0  0  0  0  0  0  0  0  0  0  0  0
    9.6619   -5.8399   18.8084 C   0  0  0  0  0  0  0  0  0  0  0  0
    9.1022   -7.8446   17.7506 C   0  0  0  0  0  0  0  0  0  0  0  0
   10.8243   -4.7500   21.9840 C   0  0  0  0  0  0  0  0  0  0  0  0
    2.0561  -11.2100   21.3462 O   0  0  0  0  0  0  0  0  0  0  0  0
   -0.3614  -12.9505   20.3524 C   0  0  0  0  0  0  0  0  0  0  0  0
    1.9216   -9.7062   16.8422 N   0  0  0  0  0  0  0  0  0  0  0  0
    9.6950   -3.8787   16.6148 O   0  0  0  0  0  0  0  0  0  0  0  0
    0.6405  -12.4544   19.7636 S   0  0  0  0  0  0  0  0  0  0  0  0
   11.5149   -5.2529   20.7760 C   0  0  0  0  0  0  0  0  0  0  0  0
    3.5141  -10.4077   18.3331 N   0  0  0  0  0  0  0  0  0  0  0  0
    7.6399   -5.9873   15.7951 O   0  0  0  0  0  0  0  0  0  0  0  0
    4.6650  -10.2153   17.7499 He  0  0  0  0  0  0  0  0  0  0  0  0
    2.0901  -11.4412   21.8690 He  0  0  0  0  0  0  0  0  0  0  0  0
    8.1537   -9.1760   16.7141 He  0  0  0  0  0  0  0  0  0  0  0  0
    2.6382   -9.3612   15.4034 He  0  0  0  0  0  0  0  0  0  0  0  0
    5.0861   -8.3876   14.9640 He  0  0  0  0  0  0  0  0  0  0  0  0
    6.7670   -7.6722   14.0520 He  0  0  0  0  0  0  0  0  0  0  0  0
    2.9649   -8.4051   17.2383 He  0  0  0  0  0  0  0  0  0  0  0  0
    8.6176   -4.9093   17.8355 He  0  0  0  0  0  0  0  0  0  0  0  0
   11.1860   -3.4551   19.4447 He  0  0  0  0  0  0  0  0  0  0  0  0
    6.0067   -8.8746   18.0080 He  0  0  0  0  0  0  0  0  0  0  0  0
    0.2129  -12.6947   21.5795 He  0  0  0  0  0  0  0  0  0  0  0  0
    5.9412   -8.3599   14.7438 He  0  0  0  0  0  0  0  0  0  0  0  0
    1.9817  -10.7238   18.2712 He  0  0  0  0  0  0  0  0  0  0  0  0
    3.7493  -11.0748   17.9008 He  0  0  0  0  0  0  0  0  0  0  0  0
  1  2  4  0
  1  5  1  0
  1  9  2  0
  1 12  2  0
  1 18  1  0
  2  4  2  0
  3  4  1  0
  3  5  1  0
  3 15  3  0
  4  6  3  0
  4  8  4  0
  4 13  1  0
  4 14  2  0
  4 17  4  0
  5  9  4  0
  5 11  1  0
  5 12  2  0
  5 14  2  0
  5 15  4  0
  5 16  3  0
  6 10  1  0
  6 17  4  0
  6 20  3  0
  7  8  1  0
  7 10  4  0
  7 18  4  0
  7 20  3  0
  8 17  4  0
  9 12  3  0
 12 16  3  0
 12 18  1  0
 14 17  4  0
M  END
$$$$

 Created by Python create_sdf_string function

 34 25  0  0  0  0  0  0  0  0999 V2000
   11.6624   -3.2844   22.1094 O   0  0  0  0  0  0  0  0  0  0  0  0
    7.0072   -6.6582   16.8846 C   0  0  0  0  0  0  0  0  0  0  0  0
   11.6528   -5.2823   22.4696 O   0  0  0  0  0  0  0  0  0  0  0  0
    4.2440   -9.8263   17.7960 C   0  0  0  0  0  0  0  0  0  0  0  0
    1.4375  -11.9289   21.9763 C   0  0  0  0  0  0  0  0  0  0  0  0
    5.5752   -8.4425   16.5293 C   0  0  0  0  0  0  0  0  0  0  0  0
   10.6028   -3.6706   18.3094 C   0  0  0  0  0  0  0  0  0  0  0  0
    6.0812   -8.4128   17.5791 C   0  0  0  0  0  0  0  0  0  0  0  0
    7.9793   -8.2592   16.7222 C   0  0  0  0  0  0  0  0  0  0  0  0
   10.3750   -5.8527   19.9080 C   0  0  0  0  0  0  0  0  0  0  0  0
    1.7680  -11.5990   19.7124 C   0  0  0  0  0  0  0  0  0  0  0  0
    2.9724   -8.8451   15.6202 C   0  0  0  0  0  0  0  0  0  0  0  0
    9.9444   -4.6977   17.7721 C   0  0  0  0  0  0  0  0  0  0  0  0
    9.8828   -5.8737   18.6374 C   0  0  0  0  0  0  0  0  0  0  0  0
    4.8410   -8.4560   15.3773 C   0  0  0  0  0  0  0  0  0  0  0  0
    6.8895   -7.7777   15.5380 C   0  0  0  0  0  0  0  0  0  0  0  0
    8.8982   -7.6487   17.8058 C   0  0  0  0  0  0  0  0  0  0  0  0
    3.0209   -9.3517   16.6635 C   0  0  0  0  0  0  0  0  0  0  0  0
   11.4004   -4.4905   21.6717 C   0  0  0  0  0  0  0  0  0  0  0  0
    2.1871  -11.5989   21.0121 C   0  0  0  0  0  0  0  0  0  0  0  0
    8.9277   -5.7335   17.2194 N   0  0  0  0  0  0  0  0  0  0  0  0
   -0.0291  -12.8184   20.4907 C   0  0  0  0  0  0  0  0  0  0  0  0
    1.8950   -9.9192   17.1465 N   0  0  0  0  0  0  0  0  0  0  0  0
    9.5772   -4.0817   16.4090 O   0  0  0  0  0  0  0  0  0  0  0  0
   11.0337   -3.5870   19.5539 C   0  0  0  0  0  0  0  0  0  0  0  0
    6.0798   -8.6809   17.8273 C   0  0  0  0  0  0  0  0  0  0  0  0
    0.3572  -12.5718   21.7022 C   0  0  0  0  0  0  0  0  0  0  0  0
    5.7721   -8.2933   15.4474 C   0  0  0  0  0  0  0  0  0  0  0  0
    0.6738  -12.2999   19.4409 C   0  0  0  0  0  0  0  0  0  0  0  0
    2.0333  -10.6831   18.2031 C   0  0  0  0  0  0  0  0  0  0  0  0
    3.4285  -10.5088   18.2452 C   0  0  0  0  0  0  0  0  0  0  0  0
   10.9313   -4.6964   20.4048 C   0  0  0  0  0  0  0  0  0  0  0  0
    3.9099  -10.5136   18.4924 N   0  0  0  0  0  0  0  0  0  0  0  0
    7.6508   -5.6991   15.7581 O   0  0  0  0  0  0  0  0  0  0  0  0
  1 19  2  0
  3 19  1  0
  4 33  4  0
  5 20  4  0
  5 27  4  0
  7 13  4  0
  7 25  4  0
  8 26  1  0
  9 16  1  0
  9 17  1  0
 10 14  4  0
 10 32  4  0
 11 20  4  0
 11 29  4  0
 13 14  4  0
 13 21  1  0
 13 24  1  0
 18 23  4  0
 19 32  1  0
 22 27  4  0
 22 29  4  0
 23 30  4  0
 25 32  4  0
 30 31  4  0
 31 33  4  0
M  END
$$$$

 Created by Python create_sdf_string function

 34 72  0  0  0  0  0  0  0  0999 V2000
   10.7943   -3.6312   22.1428 O   0  0  0  0  0  0  0  0  0  0  0  0
    7.2256   -6.7144   17.2616 C   0  0  0  0  0  0  0  0  0  0  0  0
   11.3742   -5.7673   22.3206 O   0  0  0  0  0  0  0  0  0  0  0  0
    1.4686  -12.1483   21.9800 C   0  0  0  0  0  0  0  0  0  0  0  0
    7.1570   -7.6503   18.0284 N   0  0  0  0  0  0  0  0  0  0  0  0
   10.0091   -6.0900   20.0579 C   0  0  0  0  0  0  0  0  0  0  0  0
    2.0585  -11.7362   19.8552 C   0  0  0  0  0  0  0  0  0  0  0  0
    9.8756   -4.6414   18.3242 C   0  0  0  0  0  0  0  0  0  0  0  0
    4.4844   -7.0607   15.1896 N   0  0  0  0  0  0  0  0  0  0  0  0
    3.4297   -7.5878   16.3668 O   0  0  0  0  0  0  0  0  0  0  0  0
   11.6556   -4.0209   21.7420 C   0  0  0  0  0  0  0  0  0  0  0  0
   10.7082   -5.8066   17.1574 O   0  0  0  0  0  0  0  0  0  0  0  0
   -0.2855  -12.8015   19.9944 C   0  0  0  0  0  0  0  0  0  0  0  0
    1.9407  -10.1507   16.8780 C   0  0  0  0  0  0  0  0  0  0  0  0
    9.8452   -4.3366   16.4004 O   0  0  0  0  0  0  0  0  0  0  0  0
   11.2839   -3.2983   19.1074 C   0  0  0  0  0  0  0  0  0  0  0  0
    5.5955   -9.4024   18.0891 P   0  0  0  0  0  0  0  0  0  0  0  0
    6.1291   -8.2524   14.2026 C   0  0  0  0  0  0  0  0  0  0  0  0
    1.1241  -12.2795   19.3495 C   0  0  0  0  0  0  0  0  0  0  0  0
    1.9119  -10.7858   17.8165 C   0  0  0  0  0  0  0  0  0  0  0  0
   10.3302   -5.1314   20.4644 C   0  0  0  0  0  0  0  0  0  0  0  0
    4.0752  -10.7272   18.5794 N   0  0  0  0  0  0  0  0  0  0  0  0
    7.6844   -5.8085   14.9246 O   0  0  0  0  0  0  0  0  0  0  0  0
    2.9010   -9.8924   16.7645 He  0  0  0  0  0  0  0  0  0  0  0  0
    6.2578   -7.9545   16.6114 He  0  0  0  0  0  0  0  0  0  0  0  0
   10.6491   -3.7396   17.9064 He  0  0  0  0  0  0  0  0  0  0  0  0
    6.1729   -8.5878   17.3337 He  0  0  0  0  0  0  0  0  0  0  0  0
    3.1155   -9.4942   15.6578 He  0  0  0  0  0  0  0  0  0  0  0  0
   10.0692   -5.7265   19.2044 He  0  0  0  0  0  0  0  0  0  0  0  0
    7.4160   -7.1737   15.5874 He  0  0  0  0  0  0  0  0  0  0  0  0
    9.0168   -7.6182   17.7758 He  0  0  0  0  0  0  0  0  0  0  0  0
    2.1867  -11.0783   21.0041 He  0  0  0  0  0  0  0  0  0  0  0  0
    0.7021  -12.7741   22.5871 He  0  0  0  0  0  0  0  0  0  0  0  0
    5.1434  -10.3608   17.3670 He  0  0  0  0  0  0  0  0  0  0  0  0
  1  9  2  0
  1 11  2  0
  1 12  4  0
  1 18  3  0
  2  5  1  0
  2 10  4  0
  2 13  2  0
  2 16  1  0
  2 23  3  0
  3  5  4  0
  3  8  3  0
  3 10  3  0
  3 11  1  0
  3 23  1  0
  4  5  4  0
  4  9  4  0
  4 10  2  0
  4 20  4  0
  5  7  1  0
  5  9  2  0
  5 12  4  0
  5 17  3  0
  5 18  3  0
  5 19  2  0
  5 20  4  0
  5 22  4  0
  5 23  3  0
  6  7  1  0
  6 10  3  0
  6 15  1  0
  6 21  4  0
  7  9  1  0
  7 12  4  0
  7 18  4  0
  7 19  2  0
  7 21  2  0
  8 12  1  0
  8 15  1  0
  8 23  4  0
  9 10  4  0
  9 13  3  0
  9 15  3  0
  9 16  4  0
  9 18  4  0
  9 19  2  0
  9 20  3  0
  9 21  3  0
 10 17  3  0
 10 20  4  0
 10 22  3  0
 10 23  2  0
 11 12  4  0
 11 21  1  0
 12 13  2  0
 12 15  3  0
 12 16  1  0
 12 17  1  0
 12 20  3  0
 12 21  4  0
 12 23  4  0
 13 18  3  0
 13 19  4  0
 13 20  1  0
 14 21  4  0
 15 17  3  0
 15 19  1  0
 16 21  4  0
 17 20  1  0
 17 21  3  0
 18 21  1  0
 18 22  4  0
 19 22  1  0
M  END
$$$$

 Created by Python create_sdf_string function

 34 29  0  0  0  0  0  0  0  0999 V2000
   10.9292   -3.3657   22.2474 O   0  0  0  0  0  0  0  0  0  0  0  0
    7.3645   -6.6505   17.3363 C   0  0  0  0  0  0  0  0  0  0  0  0
   11.4536   -5.4174   22.4120 O   0  0  0  0  0  0  0  0  0  0  0  0
    2.9605   -9.8762   17.1998 C   0  0  0  0  0  0  0  0  0  0  0  0
    1.5544  -12.0848   21.9776 C   0  0  0  0  0  0  0  0  0  0  0  0
    6.4209   -7.8911   16.4385 C   0  0  0  0  0  0  0  0  0  0  0  0
   10.6755   -3.6339   18.1895 C   0  0  0  0  0  0  0  0  0  0  0  0
    6.1801   -8.4473   17.3807 C   0  0  0  0  0  0  0  0  0  0  0  0
    7.6586   -7.3757   17.8078 N   0  0  0  0  0  0  0  0  0  0  0  0
   10.3114   -5.7746   19.9157 C   0  0  0  0  0  0  0  0  0  0  0  0
    1.7595  -11.6106   19.6161 C   0  0  0  0  0  0  0  0  0  0  0  0
    3.2765   -9.0324   16.1883 C   0  0  0  0  0  0  0  0  0  0  0  0
   10.1112   -4.7699   17.8281 C   0  0  0  0  0  0  0  0  0  0  0  0
    9.9129   -5.7907   18.6583 C   0  0  0  0  0  0  0  0  0  0  0  0
    4.7591   -7.6470   15.3498 C   0  0  0  0  0  0  0  0  0  0  0  0
    7.4713   -7.2702   15.7367 C   0  0  0  0  0  0  0  0  0  0  0  0
    9.0675   -7.5472   17.9934 C   0  0  0  0  0  0  0  0  0  0  0  0
    3.8422   -8.4670   15.9950 C   0  0  0  0  0  0  0  0  0  0  0  0
   11.1203   -4.4271   21.7216 C   0  0  0  0  0  0  0  0  0  0  0  0
    2.3171  -11.7043   20.8967 C   0  0  0  0  0  0  0  0  0  0  0  0
    9.4314   -5.8649   17.1701 C   0  0  0  0  0  0  0  0  0  0  0  0
    0.0088  -12.7762   20.4235 C   0  0  0  0  0  0  0  0  0  0  0  0
    1.9293  -10.1559   17.2506 C   0  0  0  0  0  0  0  0  0  0  0  0
    9.5973   -4.6207   16.2766 O   0  0  0  0  0  0  0  0  0  0  0  0
   11.0248   -3.4808   19.4978 C   0  0  0  0  0  0  0  0  0  0  0  0
    5.4679   -9.2530   17.7826 C   0  0  0  0  0  0  0  0  0  0  0  0
    0.4323  -12.6518   21.6826 C   0  0  0  0  0  0  0  0  0  0  0  0
    5.5089   -7.8730   15.1746 C   0  0  0  0  0  0  0  0  0  0  0  0
    0.6882  -12.1655   19.3551 C   0  0  0  0  0  0  0  0  0  0  0  0
    2.0506  -10.7624   18.2520 C   0  0  0  0  0  0  0  0  0  0  0  0
    4.4518   -9.8825   17.9007 C   0  0  0  0  0  0  0  0  0  0  0  0
   10.8453   -4.5728   20.3252 C   0  0  0  0  0  0  0  0  0  0  0  0
    3.9171  -10.6850   18.7449 N   0  0  0  0  0  0  0  0  0  0  0  0
    7.4845   -5.8263   15.4271 O   0  0  0  0  0  0  0  0  0  0  0  0
  1 19  2  0
  2  9  1  0
  3 19  1  0
  4 23  4  0
  5 20  4  0
  5 27  4  0
  6 16  1  0
  7 13  4  0
  7 25  4  0
  8 26  1  0
  9 17  1  0
 10 14  4  0
 10 32  4  0
 11 20  4  0
 11 29  4  0
 11 30  1  0
 12 18  4  0
 13 14  4  0
 13 24  1  0
 14 17  1  0
 15 18  4  0
 15 28  4  0
 19 32  1  0
 22 27  4  0
 22 29  4  0
 23 30  4  0
 25 32  4  0
 26 31  4  0
 31 33  4  0
M  END
$$$$

 Created by Python create_sdf_string function

 34 98  0  0  0  0  0  0  0  0999 V2000
   10.9225   -3.3089   22.3092 O   0  0  0  0  0  0  0  0  0  0  0  0
   11.9505   -5.4730   22.0596 O   0  0  0  0  0  0  0  0  0  0  0  0
    1.0098  -12.3611   22.0528 C   0  0  0  0  0  0  0  0  0  0  0  0
    4.5544   -7.8207   14.5424 C   0  0  0  0  0  0  0  0  0  0  0  0
   11.0628   -3.5862   18.4852 C   0  0  0  0  0  0  0  0  0  0  0  0
    6.6689   -8.4396   19.2187 C   0  0  0  0  0  0  0  0  0  0  0  0
   10.1843   -5.4922   20.0409 C   0  0  0  0  0  0  0  0  0  0  0  0
    1.3295  -12.6692   19.6857 C   0  0  0  0  0  0  0  0  0  0  0  0
    2.8788  -10.0917   17.5017 C   0  0  0  0  0  0  0  0  0  0  0  0
   10.4172   -5.0167   17.3287 C   0  0  0  0  0  0  0  0  0  0  0  0
   10.0221   -5.4804   18.7612 C   0  0  0  0  0  0  0  0  0  0  0  0
    7.2554   -7.0626   15.7287 O   0  0  0  0  0  0  0  0  0  0  0  0
    8.6370   -7.5319   17.5472 C   0  0  0  0  0  0  0  0  0  0  0  0
   10.9124   -4.3473   21.9714 C   0  0  0  0  0  0  0  0  0  0  0  0
    2.0286  -12.5739   21.3468 C   0  0  0  0  0  0  0  0  0  0  0  0
    0.4846  -12.2469   20.7840 C   0  0  0  0  0  0  0  0  0  0  0  0
    1.5851  -10.2396   17.8612 C   0  0  0  0  0  0  0  0  0  0  0  0
    9.5428   -4.7668   16.4104 O   0  0  0  0  0  0  0  0  0  0  0  0
    4.1964   -9.2179   19.3272 N   0  0  0  0  0  0  0  0  0  0  0  0
    0.7174  -12.8452   22.3021 C   0  0  0  0  0  0  0  0  0  0  0  0
    5.7951   -9.2367   14.9581 Br  0  0  0  0  0  0  0  0  0  0  0  0
    1.0058  -12.2637   19.1746 C   0  0  0  0  0  0  0  0  0  0  0  0
    2.4109  -11.1861   18.2481 C   0  0  0  0  0  0  0  0  0  0  0  0
    1.4842   -8.8807   17.0499 S   0  0  0  0  0  0  0  0  0  0  0  0
   10.5376   -4.3849   20.2419 C   0  0  0  0  0  0  0  0  0  0  0  0
    4.0752  -10.7653   18.8009 N   0  0  0  0  0  0  0  0  0  0  0  0
    7.6414   -6.2048   16.8103 He  0  0  0  0  0  0  0  0  0  0  0  0
    2.1629   -9.6568   19.3554 He  0  0  0  0  0  0  0  0  0  0  0  0
    6.4005   -8.5209   16.7113 He  0  0  0  0  0  0  0  0  0  0  0  0
    5.0150   -7.7459   16.1877 He  0  0  0  0  0  0  0  0  0  0  0  0
    4.6985   -8.6001   15.6738 He  0  0  0  0  0  0  0  0  0  0  0  0
    9.1037   -6.4780   18.3043 He  0  0  0  0  0  0  0  0  0  0  0  0
   10.8439   -3.6771   20.1459 He  0  0  0  0  0  0  0  0  0  0  0  0
    7.3680   -6.1463   14.7191 He  0  0  0  0  0  0  0  0  0  0  0  0
  1  2  1  0
  1  5  4  0
  1  9  2  0
  1 11  3  0
  1 12  3  0
  1 13  2  0
  1 14  2  0
  1 23  4  0
  1 26  3  0
  2  5  3  0
  2  8  4  0
  2  9  3  0
  2 14  1  0
  2 21  1  0
  3  6  3  0
  3 12  4  0
  3 14  4  0
  3 18  3  0
  4  6  1  0
  4  7  2  0
  4  9  4  0
  4 10  2  0
  4 11  1  0
  4 12  4  0
  4 14  1  0
  4 17  4  0
  4 20  2  0
  4 21  3  0
  4 22  4  0
  4 24  3  0
  5  6  3  0
  5 10  4  0
  5 19  4  0
  5 25  4  0
  6 10  3  0
  6 11  1  0
  6 19  2  0
  6 20  1  0
  6 21  4  0
  6 22  4  0
  7 10  1  0
  7 11  4  0
  7 13  1  0
  7 18  4  0
  7 19  4  0
  7 24  4  0
  7 25  4  0
  8 11  2  0
  8 15  4  0
  8 17  1  0
  8 18  2  0
  8 22  3  0
  8 23  1  0
  9 15  4  0
  9 16  4  0
  9 19  3  0
  9 22  1  0
  9 25  4  0
  9 26  3  0
 10 11  4  0
 10 19  1  0
 11 13  4  0
 11 16  3  0
 12 14  2  0
 12 20  2  0
 12 23  4  0
 12 24  1  0
 13 14  4  0
 13 19  3  0
 13 21  2  0
 13 25  2  0
 13 26  1  0
 14 19  1  0
 14 24  4  0
 14 25  1  0
 15 19  1  0
 15 21  1  0
 15 22  3  0
 15 24  1  0
 15 25  4  0
 16 18  3  0
 16 19  3  0
 16 21  3  0
 16 22  4  0
 17 19  3  0
 17 23  4  0
 17 24  1  0
 18 19  1  0
 18 21  2  0
 18 23  1  0
 18 25  2  0
 19 21  3  0
 19 26  1  0
 21 25  3  0
 21 26  4  0
 22 26  3  0
 23 24  3  0
 24 26  3  0
M  END
$$$$

 Created by Python create_sdf_string function

 34 27  0  0  0  0  0  0  0  0999 V2000
   10.7845   -3.2903   22.4609 O   0  0  0  0  0  0  0  0  0  0  0  0
    8.1368   -6.0755   16.7381 N   0  0  0  0  0  0  0  0  0  0  0  0
   11.5931   -5.2806   22.4626 O   0  0  0  0  0  0  0  0  0  0  0  0
    3.1079  -10.6278   18.1860 C   0  0  0  0  0  0  0  0  0  0  0  0
    1.5423  -12.5267   22.1396 C   0  0  0  0  0  0  0  0  0  0  0  0
    4.6817   -8.0955   15.3186 C   0  0  0  0  0  0  0  0  0  0  0  0
   10.8034   -3.4581   18.2812 C   0  0  0  0  0  0  0  0  0  0  0  0
    6.8487   -8.3206   18.1318 C   0  0  0  0  0  0  0  0  0  0  0  0
    6.7217   -8.0871   16.9216 C   0  0  0  0  0  0  0  0  0  0  0  0
   10.2723   -5.6912   19.9133 C   0  0  0  0  0  0  0  0  0  0  0  0
    1.6711  -11.9052   19.8610 C   0  0  0  0  0  0  0  0  0  0  0  0
    3.4767   -9.6337   17.3000 C   0  0  0  0  0  0  0  0  0  0  0  0
   10.1457   -4.5921   17.7895 C   0  0  0  0  0  0  0  0  0  0  0  0
    9.8711   -5.6769   18.6055 C   0  0  0  0  0  0  0  0  0  0  0  0
    5.2910   -8.2524   16.4377 C   0  0  0  0  0  0  0  0  0  0  0  0
    7.2393   -6.8946   15.9665 C   0  0  0  0  0  0  0  0  0  0  0  0
    8.7195   -7.6016   17.9534 C   0  0  0  0  0  0  0  0  0  0  0  0
    4.5369   -8.5013   15.9382 C   0  0  0  0  0  0  0  0  0  0  0  0
   11.0569   -4.3683   21.8537 C   0  0  0  0  0  0  0  0  0  0  0  0
    2.2618  -12.3060   21.0642 C   0  0  0  0  0  0  0  0  0  0  0  0
    8.9507   -6.6744   17.7433 C   0  0  0  0  0  0  0  0  0  0  0  0
   -0.2184  -12.5580   20.8563 C   0  0  0  0  0  0  0  0  0  0  0  0
    1.5377  -10.3881   17.6414 C   0  0  0  0  0  0  0  0  0  0  0  0
    9.7434   -4.6450   16.5307 O   0  0  0  0  0  0  0  0  0  0  0  0
   11.0711   -3.3848   19.6525 C   0  0  0  0  0  0  0  0  0  0  0  0
    4.5991   -9.7727   18.0429 N   0  0  0  0  0  0  0  0  0  0  0  0
    0.2881  -12.6219   22.0597 C   0  0  0  0  0  0  0  0  0  0  0  0
    5.7892   -8.5802   15.7266 C   0  0  0  0  0  0  0  0  0  0  0  0
    0.4431  -12.2204   19.7043 C   0  0  0  0  0  0  0  0  0  0  0  0
    2.3006  -11.0177   18.7704 C   0  0  0  0  0  0  0  0  0  0  0  0
    1.8970   -9.4359   16.7164 C   0  0  0  0  0  0  0  0  0  0  0  0
   10.7953   -4.4880   20.4518 C   0  0  0  0  0  0  0  0  0  0  0  0
    3.7613  -10.6916   18.8176 N   0  0  0  0  0  0  0  0  0  0  0  0
    6.9676   -6.3377   15.1446 O   0  0  0  0  0  0  0  0  0  0  0  0
  1 19  2  0
  2 16  4  0
  2 21  4  0
  3 19  1  0
  4 33  4  0
  5 20  4  0
  5 27  4  0
  7 13  4  0
  7 25  4  0
 10 14  4  0
 10 32  4  0
 11 20  4  0
 11 29  4  0
 11 30  1  0
 13 14  4  0
 13 24  1  0
 14 21  1  0
 16 34  2  0
 17 21  4  0
 19 32  1  0
 22 27  4  0
 22 29  4  0
 23 30  4  0
 23 31  4  0
 25 32  4  0
 26 33  4  0
 30 33  4  0
M  END
$$$$

 Created by Python create_sdf_string function

 34 76  0  0  0  0  0  0  0  0999 V2000
    7.8869   -5.5952   16.5181 N   0  0  0  0  0  0  0  0  0  0  0  0
   11.4856   -4.4957   22.5962 O   0  0  0  0  0  0  0  0  0  0  0  0
    3.5250   -8.1899   18.2244 N   0  0  0  0  0  0  0  0  0  0  0  0
    3.4926   -8.4449   16.5179 Se  0  0  0  0  0  0  0  0  0  0  0  0
   10.9012   -3.1869   18.3284 F   0  0  0  0  0  0  0  0  0  0  0  0
    7.2142   -7.2438   15.6069 C   0  0  0  0  0  0  0  0  0  0  0  0
    1.6781  -11.9516   19.5369 C   0  0  0  0  0  0  0  0  0  0  0  0
   10.7137   -4.7579   17.6541 C   0  0  0  0  0  0  0  0  0  0  0  0
   10.6869   -5.6821   18.7879 C   0  0  0  0  0  0  0  0  0  0  0  0
    6.0493   -8.0715   16.4085 S   0  0  0  0  0  0  0  0  0  0  0  0
    9.3013   -7.9357   17.9456 C   0  0  0  0  0  0  0  0  0  0  0  0
    4.9877   -8.2361   14.4959 O   0  0  0  0  0  0  0  0  0  0  0  0
   11.6884   -3.9673   22.6636 C   0  0  0  0  0  0  0  0  0  0  0  0
    2.1626  -11.9445   20.4246 C   0  0  0  0  0  0  0  0  0  0  0  0
   -0.2598  -12.8587   21.2500 C   0  0  0  0  0  0  0  0  0  0  0  0
    2.1260  -10.1211   18.4397 C   0  0  0  0  0  0  0  0  0  0  0  0
    9.4919   -5.0772   16.5971 N   0  0  0  0  0  0  0  0  0  0  0  0
    4.3075   -8.8937   17.4559 F   0  0  0  0  0  0  0  0  0  0  0  0
   -0.7467  -12.2962   21.6233 C   0  0  0  0  0  0  0  0  0  0  0  0
    0.6950  -12.0679   19.7825 C   0  0  0  0  0  0  0  0  0  0  0  0
    2.5240  -10.4401   18.7797 C   0  0  0  0  0  0  0  0  0  0  0  0
   11.0129   -4.5201   20.3356 C   0  0  0  0  0  0  0  0  0  0  0  0
    3.9676  -10.5408   18.8802 N   0  0  0  0  0  0  0  0  0  0  0  0
    6.8363   -6.5971   14.8402 O   0  0  0  0  0  0  0  0  0  0  0  0
   10.9359   -3.5734   22.4934 He  0  0  0  0  0  0  0  0  0  0  0  0
    1.4304  -12.6324   22.1650 He  0  0  0  0  0  0  0  0  0  0  0  0
    8.6364   -9.9448   18.7962 He  0  0  0  0  0  0  0  0  0  0  0  0
    9.5959   -5.7409   19.8837 He  0  0  0  0  0  0  0  0  0  0  0  0
    3.0482   -9.1784   16.3635 He  0  0  0  0  0  0  0  0  0  0  0  0
    7.2029   -8.4843   14.9247 He  0  0  0  0  0  0  0  0  0  0  0  0
    9.1290   -6.3601   17.1784 He  0  0  0  0  0  0  0  0  0  0  0  0
   11.0038   -3.6704   19.4930 He  0  0  0  0  0  0  0  0  0  0  0  0
    6.0475   -9.6894   14.8683 He  0  0  0  0  0  0  0  0  0  0  0  0
    0.6633   -8.5734   17.8843 He  0  0  0  0  0  0  0  0  0  0  0  0
  1  2  1  0
  1  5  2  0
  1  6  4  0
  1  7  2  0
  1 12  1  0
  1 15  1  0
  2 14  1  0
  2 16  4  0
  3 11  2  0
  3 18  1  0
  3 20  4  0
  3 22  1  0
  3 23  2  0
  3 24  1  0
  4  7  2  0
  4 12  4  0
  4 14  2  0
  4 16  2  0
  5  6  2  0
  5  8  4  0
  5 10  3  0
  5 11  4  0
  5 18  4  0
  6 10  3  0
  6 11  1  0
  6 13  4  0
  6 14  4  0
  6 15  4  0
  6 17  3  0
  6 18  4  0
  6 22  1  0
  6 23  2  0
  6 24  4  0
  7 10  1  0
  7 13  3  0
  7 14  4  0
  7 18  2  0
  7 21  1  0
  8  9  4  0
  8 10  4  0
  8 11  1  0
  8 15  4  0
  9 11  4  0
  9 13  2  0
  9 15  4  0
 10 13  1  0
 10 15  2  0
 10 16  2  0
 10 20  3  0
 10 24  2  0
 11 14  2  0
 11 16  4  0
 11 17  1  0
 11 18  2  0
 12 15  1  0
 12 19  2  0
 12 20  2  0
 12 22  2  0
 12 24  3  0
 13 17  1  0
 13 22  1  0
 14 15  1  0
 14 16  3  0
 14 18  1  0
 15 19  4  0
 15 20  4  0
 15 22  4  0
 15 24  1  0
 16 21  4  0
 17 18  3  0
 18 20  3  0
 18 23  2  0
 19 21  2  0
 20 23  4  0
 21 23  4  0
 23 24  3  0
M  END
$$$$

 Created by Python create_sdf_string function

 34 28  0  0  0  0  0  0  0  0999 V2000
   10.7434   -3.1061   22.4088 O   0  0  0  0  0  0  0  0  0  0  0  0
    8.3360   -5.8313   16.5319 N   0  0  0  0  0  0  0  0  0  0  0  0
   11.4290   -4.9847   22.5473 O   0  0  0  0  0  0  0  0  0  0  0  0
    3.9424   -9.2973   17.3231 C   0  0  0  0  0  0  0  0  0  0  0  0
    1.2867  -12.5124   21.9214 C   0  0  0  0  0  0  0  0  0  0  0  0
    3.6692   -8.6051   16.4270 C   0  0  0  0  0  0  0  0  0  0  0  0
   10.9330   -3.4610   18.2670 C   0  0  0  0  0  0  0  0  0  0  0  0
    8.2090   -8.4376   17.7082 C   0  0  0  0  0  0  0  0  0  0  0  0
    7.4846   -7.0474   16.1544 C   0  0  0  0  0  0  0  0  0  0  0  0
   10.4631   -5.6483   19.9971 C   0  0  0  0  0  0  0  0  0  0  0  0
    1.6079  -11.6021   19.7787 C   0  0  0  0  0  0  0  0  0  0  0  0
    2.8433   -8.9301   16.5138 C   0  0  0  0  0  0  0  0  0  0  0  0
   10.2427   -4.6020   17.7925 C   0  0  0  0  0  0  0  0  0  0  0  0
   10.0761   -5.6177   18.6875 C   0  0  0  0  0  0  0  0  0  0  0  0
    6.2077   -7.9589   16.2870 C   0  0  0  0  0  0  0  0  0  0  0  0
    7.0986   -8.1134   15.6888 C   0  0  0  0  0  0  0  0  0  0  0  0
    9.0956   -7.6293   18.0176 C   0  0  0  0  0  0  0  0  0  0  0  0
    4.9167   -8.2481   15.3357 C   0  0  0  0  0  0  0  0  0  0  0  0
   11.0617   -4.2234   21.8832 C   0  0  0  0  0  0  0  0  0  0  0  0
    2.1123  -12.1012   20.9340 C   0  0  0  0  0  0  0  0  0  0  0  0
    9.0053   -6.3035   17.1828 C   0  0  0  0  0  0  0  0  0  0  0  0
   -0.5135  -12.3492   20.6401 C   0  0  0  0  0  0  0  0  0  0  0  0
    1.5369  -10.0665   17.8132 C   0  0  0  0  0  0  0  0  0  0  0  0
    9.5667   -4.9364   16.5951 N   0  0  0  0  0  0  0  0  0  0  0  0
   11.1226   -3.3331   19.6521 C   0  0  0  0  0  0  0  0  0  0  0  0
    4.3906   -9.3660   17.4600 C   0  0  0  0  0  0  0  0  0  0  0  0
   -0.0419  -12.6137   21.7686 C   0  0  0  0  0  0  0  0  0  0  0  0
    5.9127   -8.8864   15.6754 C   0  0  0  0  0  0  0  0  0  0  0  0
    0.2761  -11.8879   19.6152 C   0  0  0  0  0  0  0  0  0  0  0  0
    2.3361  -10.7565   18.8225 C   0  0  0  0  0  0  0  0  0  0  0  0
    1.3199   -9.3939   16.9799 N   0  0  0  0  0  0  0  0  0  0  0  0
   10.8741   -4.4197   20.4939 C   0  0  0  0  0  0  0  0  0  0  0  0
    3.6066  -10.5953   18.8836 N   0  0  0  0  0  0  0  0  0  0  0  0
    6.6550   -6.2205   14.9815 O   0  0  0  0  0  0  0  0  0  0  0  0
  1 19  1  0
  2  9  4  0
  2 21  4  0
  2 24  4  0
  3 19  1  0
  4 26  4  0
  5 20  4  0
  5 27  4  0
  7 13  4  0
  7 25  4  0
  8 17  4  0
 10 14  4  0
 10 32  4  0
 11 20  4  0
 11 29  4  0
 11 30  1  0
 12 31  4  0
 13 14  4  0
 13 24  4  0
 18 28  1  0
 19 32  1  0
 21 24  4  0
 22 27  4  0
 22 29  4  0
 23 30  4  0
 23 31  4  0
 25 32  4  0
 30 33  4  0
M  END
$$$$

 Created by Python create_sdf_string function

 34 76  0  0  0  0  0  0  0  0999 V2000
    8.2445   -6.0320   15.9012 N   0  0  0  0  0  0  0  0  0  0  0  0
   10.9911   -4.9598   22.6472 O   0  0  0  0  0  0  0  0  0  0  0  0
    2.7169  -10.0321   18.3978 I   0  0  0  0  0  0  0  0  0  0  0  0
    6.6004   -9.5786   16.6351 Cl  0  0  0  0  0  0  0  0  0  0  0  0
    1.7223  -11.3788   20.1183 C   0  0  0  0  0  0  0  0  0  0  0  0
    1.3513   -8.4292   14.4517 Br  0  0  0  0  0  0  0  0  0  0  0  0
   10.4370   -5.0493   18.1668 N   0  0  0  0  0  0  0  0  0  0  0  0
    9.7573   -5.7140   18.7542 C   0  0  0  0  0  0  0  0  0  0  0  0
    9.5245   -7.7456   17.4368 C   0  0  0  0  0  0  0  0  0  0  0  0
    6.4070   -7.4119   16.3120 C   0  0  0  0  0  0  0  0  0  0  0  0
   11.0517   -4.6353   21.5959 C   0  0  0  0  0  0  0  0  0  0  0  0
    1.7814  -12.1618   21.5989 C   0  0  0  0  0  0  0  0  0  0  0  0
    9.5644   -6.5076   16.2604 C   0  0  0  0  0  0  0  0  0  0  0  0
   -0.7016  -11.8230   20.9113 C   0  0  0  0  0  0  0  0  0  0  0  0
    2.0265  -10.1325   17.8038 C   0  0  0  0  0  0  0  0  0  0  0  0
   11.5882   -3.7422   19.7511 C   0  0  0  0  0  0  0  0  0  0  0  0
    4.7205   -9.3323   17.4419 C   0  0  0  0  0  0  0  0  0  0  0  0
   -0.3967  -11.8234   21.8333 C   0  0  0  0  0  0  0  0  0  0  0  0
    7.1639  -10.0616   15.1222 O   0  0  0  0  0  0  0  0  0  0  0  0
    0.6008  -11.8222   19.2936 C   0  0  0  0  0  0  0  0  0  0  0  0
   -0.3724   -9.8510   16.3983 N   0  0  0  0  0  0  0  0  0  0  0  0
   10.6831   -4.7092   20.1502 C   0  0  0  0  0  0  0  0  0  0  0  0
    4.1096  -10.8485   19.1740 N   0  0  0  0  0  0  0  0  0  0  0  0
    6.7006   -5.8773   14.7917 O   0  0  0  0  0  0  0  0  0  0  0  0
   10.2150   -2.9431   22.0043 He  0  0  0  0  0  0  0  0  0  0  0  0
    0.9908  -12.4324   22.1303 He  0  0  0  0  0  0  0  0  0  0  0  0
    4.1825   -7.9650   16.1105 He  0  0  0  0  0  0  0  0  0  0  0  0
   11.2406   -3.9814   18.5022 He  0  0  0  0  0  0  0  0  0  0  0  0
    9.0806   -5.6613   15.5832 He  0  0  0  0  0  0  0  0  0  0  0  0
   10.3867   -5.7591   20.0327 He  0  0  0  0  0  0  0  0  0  0  0  0
    5.5035   -6.6150   15.3490 He  0  0  0  0  0  0  0  0  0  0  0  0
    7.0838   -8.2738   16.3293 He  0  0  0  0  0  0  0  0  0  0  0  0
    9.3497   -4.9180   16.8821 He  0  0  0  0  0  0  0  0  0  0  0  0
    2.2994  -10.4904   19.1232 He  0  0  0  0  0  0  0  0  0  0  0  0
  1  4  4  0
  1 10  3  0
  1 19  2  0
  1 20  4  0
  1 23  2  0
  1 24  3  0
  2  9  3  0
  2 11  1  0
  2 12  1  0
  2 16  2  0
  3  4  2  0
  3  5  3  0
  3  7  1  0
  3  9  1  0
  3 13  4  0
  3 16  3  0
  3 19  4  0
  3 24  1  0
  4  6  4  0
  4  9  2  0
  4 10  3  0
  4 12  1  0
  4 16  1  0
  4 21  4  0
  4 23  3  0
  5 12  1  0
  5 17  3  0
  5 19  3  0
  5 20  4  0
  5 21  1  0
  6  9  4  0
  6 10  3  0
  6 17  4  0
  6 19  2  0
  6 20  2  0
  7  8  4  0
  7 10  4  0
  7 20  3  0
  7 21  1  0
  7 22  4  0
  8 11  3  0
  8 13  4  0
  8 19  1  0
  8 21  3  0
  8 22  3  0
  9 11  2  0
  9 14  2  0
  9 21  1  0
  9 24  1  0
 10 13  1  0
 10 14  2  0
 10 16  3  0
 10 18  4  0
 10 19  4  0
 10 20  3  0
 10 23  3  0
 11 13  2  0
 11 19  4  0
 11 22  1  0
 12 21  2  0
 13 15  4  0
 13 22  4  0
 13 24  1  0
 14 18  4  0
 14 23  2  0
 15 17  3  0
 15 19  1  0
 15 21  1  0
 16 21  4  0
 16 22  4  0
 17 23  4  0
 18 21  3  0
 19 23  1  0
 19 24  4  0
 21 22  3  0
 21 24  2  0
M  END
$$$$

 Created by Python create_sdf_string function

 34 30  0  0  0  0  0  0  0  0999 V2000
   10.4462   -3.0918   22.2331 O   0  0  0  0  0  0  0  0  0  0  0  0
    7.8295   -6.1686   15.8771 C   0  0  0  0  0  0  0  0  0  0  0  0
   11.0247   -5.1493   22.6713 O   0  0  0  0  0  0  0  0  0  0  0  0
    3.0486   -9.4584   17.1525 C   0  0  0  0  0  0  0  0  0  0  0  0
    0.9415  -12.2255   22.1638 C   0  0  0  0  0  0  0  0  0  0  0  0
    4.0219   -8.6685   16.4174 C   0  0  0  0  0  0  0  0  0  0  0  0
   10.9807   -3.7120   18.2409 C   0  0  0  0  0  0  0  0  0  0  0  0
    6.1772   -8.9371   16.9604 C   0  0  0  0  0  0  0  0  0  0  0  0
    8.6428   -5.7696   16.3247 C   0  0  0  0  0  0  0  0  0  0  0  0
   10.3501   -5.7655   19.9936 C   0  0  0  0  0  0  0  0  0  0  0  0
    1.5042  -11.4517   19.9397 C   0  0  0  0  0  0  0  0  0  0  0  0
    2.1085   -8.8087   15.7587 C   0  0  0  0  0  0  0  0  0  0  0  0
   10.2193   -4.7893   17.8151 C   0  0  0  0  0  0  0  0  0  0  0  0
   10.0020   -5.7822   18.5966 C   0  0  0  0  0  0  0  0  0  0  0  0
    5.3493   -7.5702   15.9411 C   0  0  0  0  0  0  0  0  0  0  0  0
    7.1705   -8.2178   16.4195 C   0  0  0  0  0  0  0  0  0  0  0  0
    9.1300   -8.0093   17.5740 C   0  0  0  0  0  0  0  0  0  0  0  0
    6.4139   -7.8079   16.3423 C   0  0  0  0  0  0  0  0  0  0  0  0
   10.8008   -4.3365   21.8411 C   0  0  0  0  0  0  0  0  0  0  0  0
    1.8787  -11.9902   21.1911 C   0  0  0  0  0  0  0  0  0  0  0  0
    8.8254   -6.6756   17.0294 C   0  0  0  0  0  0  0  0  0  0  0  0
   -0.7626  -11.7636   20.6581 C   0  0  0  0  0  0  0  0  0  0  0  0
    1.8283  -10.1569   17.6713 C   0  0  0  0  0  0  0  0  0  0  0  0
    9.5996   -4.7275   16.5633 N   0  0  0  0  0  0  0  0  0  0  0  0
   11.2753   -3.5580   19.6122 C   0  0  0  0  0  0  0  0  0  0  0  0
    4.2035   -9.8023   17.7668 C   0  0  0  0  0  0  0  0  0  0  0  0
   -0.3751  -12.0915   21.8977 C   0  0  0  0  0  0  0  0  0  0  0  0
    7.1167   -8.8899   15.6899 C   0  0  0  0  0  0  0  0  0  0  0  0
    0.1599  -11.4452   19.6916 C   0  0  0  0  0  0  0  0  0  0  0  0
    2.3804  -10.7849   18.8817 C   0  0  0  0  0  0  0  0  0  0  0  0
    1.1372   -9.7935   16.9526 N   0  0  0  0  0  0  0  0  0  0  0  0
   10.8462   -4.5688   20.4251 C   0  0  0  0  0  0  0  0  0  0  0  0
    3.6076  -10.6278   18.9363 N   0  0  0  0  0  0  0  0  0  0  0  0
    6.8252   -5.8254   14.9791 O   0  0  0  0  0  0  0  0  0  0  0  0
  1 19  2  0
  2  9  1  0
  2 34  2  0
  3 19  1  0
  4 23  4  0
  4 26  4  0
  5 20  4  0
  5 27  4  0
  7 13  4  0
  7 25  4  0
  9 21  1  0
  9 24  4  0
 10 14  4  0
 10 32  4  0
 11 20  4  0
 11 29  4  0
 11 30  1  0
 13 14  4  0
 13 24  4  0
 14 21  4  0
 15 18  4  0
 17 21  1  0
 19 32  1  0
 22 27  4  0
 22 29  4  0
 23 30  4  0
 23 31  4  0
 25 32  4  0
 26 33  4  0
 30 33  4  0
M  END
$$$$

 Created by Python create_sdf_string function

 34 64  0  0  0  0  0  0  0  0999 V2000
   10.3863   -3.3537   22.2584 I   0  0  0  0  0  0  0  0  0  0  0  0
    8.0217   -6.4153   15.6276 C   0  0  0  0  0  0  0  0  0  0  0  0
   10.4924   -5.2137   22.8431 O   0  0  0  0  0  0  0  0  0  0  0  0
    0.7746  -12.4236   21.9812 I   0  0  0  0  0  0  0  0  0  0  0  0
   10.8742   -3.3662   18.0334 C   0  0  0  0  0  0  0  0  0  0  0  0
    6.1476   -8.1702   16.8136 C   0  0  0  0  0  0  0  0  0  0  0  0
    7.3073   -5.6317   15.8231 N   0  0  0  0  0  0  0  0  0  0  0  0
   10.3667   -5.8449   19.2385 C   0  0  0  0  0  0  0  0  0  0  0  0
    2.0212  -10.6395   20.1785 C   0  0  0  0  0  0  0  0  0  0  0  0
    6.4435   -6.8727   17.9662 Cl  0  0  0  0  0  0  0  0  0  0  0  0
    9.1852   -8.1219   16.9412 C   0  0  0  0  0  0  0  0  0  0  0  0
    5.8753   -8.8512   17.1824 N   0  0  0  0  0  0  0  0  0  0  0  0
    1.6837  -12.0294   20.9725 C   0  0  0  0  0  0  0  0  0  0  0  0
   -0.5662  -12.1647   21.0280 C   0  0  0  0  0  0  0  0  0  0  0  0
    1.9118  -10.3901   17.3081 C   0  0  0  0  0  0  0  0  0  0  0  0
    2.2457   -8.1200   20.0148 C   0  0  0  0  0  0  0  0  0  0  0  0
    5.9095   -8.3013   16.4445 N   0  0  0  0  0  0  0  0  0  0  0  0
    0.7314  -11.0634   19.5096 C   0  0  0  0  0  0  0  0  0  0  0  0
    2.1730  -11.2943   17.9917 C   0  0  0  0  0  0  0  0  0  0  0  0
   10.9019   -4.5513   20.8001 C   0  0  0  0  0  0  0  0  0  0  0  0
    6.7081   -5.5723   14.5880 Cl  0  0  0  0  0  0  0  0  0  0  0  0
    2.4397   -9.7907   18.8081 He  0  0  0  0  0  0  0  0  0  0  0  0
    2.9812   -8.5893   16.1881 He  0  0  0  0  0  0  0  0  0  0  0  0
    1.0689   -7.3432   15.2938 He  0  0  0  0  0  0  0  0  0  0  0  0
   10.2446   -4.7102   18.1803 He  0  0  0  0  0  0  0  0  0  0  0  0
    9.8802   -5.1816   18.4463 He  0  0  0  0  0  0  0  0  0  0  0  0
    5.3816   -8.7198   16.6955 He  0  0  0  0  0  0  0  0  0  0  0  0
   10.1342   -4.2095   21.8841 He  0  0  0  0  0  0  0  0  0  0  0  0
    8.3093   -7.5689   16.7691 He  0  0  0  0  0  0  0  0  0  0  0  0
    9.5498   -4.8028   16.1256 He  0  0  0  0  0  0  0  0  0  0  0  0
   11.3207   -3.4940   19.5912 He  0  0  0  0  0  0  0  0  0  0  0  0
    0.2976  -12.5615   21.9701 He  0  0  0  0  0  0  0  0  0  0  0  0
    0.3647  -10.2954   17.6222 He  0  0  0  0  0  0  0  0  0  0  0  0
    3.6155  -10.2721   18.6544 He  0  0  0  0  0  0  0  0  0  0  0  0
  1  2  1  0
  1 11  2  0
  1 17  2  0
  1 19  3  0
  2  4  1  0
  2 11  4  0
  2 16  2  0
  3  7  4  0
  3  8  1  0
  3 12  3  0
  4  6  1  0
  4  7  1  0
  4  9  4  0
  4 12  2  0
  4 15  4  0
  4 16  2  0
  4 17  1  0
  4 18  2  0
  4 21  4  0
  5  6  2  0
  5  8  4  0
  5 10  1  0
  5 18  1  0
  6  7  1  0
  6 13  4  0
  6 15  3  0
  6 16  4  0
  6 21  2  0
  7 10  3  0
  7 11  4  0
  7 12  2  0
  7 14  3  0
  7 15  3  0
  7 16  4  0
  7 18  1  0
  7 20  3  0
  8 12  3  0
  8 19  2  0
  8 20  4  0
  9 10  4  0
  9 13  4  0
  9 17  3  0
  9 18  2  0
  9 19  1  0
 10 14  3  0
 10 18  1  0
 10 19  3  0
 10 20  2  0
 11 16  4  0
 11 17  3  0
 12 13  3  0
 12 15  3  0
 12 19  1  0
 14 16  3  0
 14 17  4  0
 14 18  4  0
 14 19  2  0
 15 17  2  0
 16 19  4  0
 16 21  1  0
 17 18  4  0
 17 19  3  0
 17 20  4  0
 17 21  2  0
M  END
$$$$

 Created by Python create_sdf_string function

 34 25  0  0  0  0  0  0  0  0999 V2000
   10.4424   -3.0549   22.3441 O   0  0  0  0  0  0  0  0  0  0  0  0
    7.9939   -6.5361   15.9676 C   0  0  0  0  0  0  0  0  0  0  0  0
   10.8164   -5.2383   22.5588 O   0  0  0  0  0  0  0  0  0  0  0  0
    2.3829  -10.0403   17.6776 C   0  0  0  0  0  0  0  0  0  0  0  0
    1.3221  -12.3840   22.0471 C   0  0  0  0  0  0  0  0  0  0  0  0
    2.8783   -8.8525   16.3704 C   0  0  0  0  0  0  0  0  0  0  0  0
   10.7506   -3.5178   18.2323 C   0  0  0  0  0  0  0  0  0  0  0  0
    6.5063   -7.9235   16.8899 C   0  0  0  0  0  0  0  0  0  0  0  0
    7.8471   -6.1930   16.1165 N   0  0  0  0  0  0  0  0  0  0  0  0
   10.1706   -5.6443   19.8869 C   0  0  0  0  0  0  0  0  0  0  0  0
    1.5070  -11.4291   19.9211 C   0  0  0  0  0  0  0  0  0  0  0  0
    1.8172   -8.2906   15.6709 C   0  0  0  0  0  0  0  0  0  0  0  0
   10.0966   -4.7012   17.7589 C   0  0  0  0  0  0  0  0  0  0  0  0
    9.9260   -5.7177   18.6070 C   0  0  0  0  0  0  0  0  0  0  0  0
    4.9151   -8.5669   16.9367 C   0  0  0  0  0  0  0  0  0  0  0  0
    6.5517   -7.4696   17.9992 C   0  0  0  0  0  0  0  0  0  0  0  0
    8.8563   -8.0491   17.1808 C   0  0  0  0  0  0  0  0  0  0  0  0
    5.5989   -8.6318   17.1028 N   0  0  0  0  0  0  0  0  0  0  0  0
   10.6209   -4.2750   21.8653 C   0  0  0  0  0  0  0  0  0  0  0  0
    2.0576  -11.9944   21.0313 C   0  0  0  0  0  0  0  0  0  0  0  0
    8.5379   -6.9859   17.1837 C   0  0  0  0  0  0  0  0  0  0  0  0
   -0.5760  -11.9491   20.9623 C   0  0  0  0  0  0  0  0  0  0  0  0
    1.6532   -9.8186   16.9195 C   0  0  0  0  0  0  0  0  0  0  0  0
    9.6347   -4.6968   16.3621 C   0  0  0  0  0  0  0  0  0  0  0  0
   10.9808   -3.3804   19.6299 C   0  0  0  0  0  0  0  0  0  0  0  0
    3.6529   -9.7599   17.8378 C   0  0  0  0  0  0  0  0  0  0  0  0
    0.0388  -12.4155   21.9853 C   0  0  0  0  0  0  0  0  0  0  0  0
    6.0777   -8.0231   16.5533 C   0  0  0  0  0  0  0  0  0  0  0  0
   -0.0115  -11.4294   19.8602 C   0  0  0  0  0  0  0  0  0  0  0  0
    2.2902  -10.8445   18.7914 C   0  0  0  0  0  0  0  0  0  0  0  0
    0.7268  -10.3044   17.1598 N   0  0  0  0  0  0  0  0  0  0  0  0
   10.5700   -4.4821   20.4045 C   0  0  0  0  0  0  0  0  0  0  0  0
    3.6803  -10.4893   18.5867 N   0  0  0  0  0  0  0  0  0  0  0  0
    6.7780   -6.0576   15.0443 O   0  0  0  0  0  0  0  0  0  0  0  0
  1 19  2  0
  2  9  4  0
  3 19  1  0
  4 30  4  0
  5 20  4  0
  5 27  4  0
  6 23  4  0
  7 13  4  0
  7 25  4  0
  8 28  4  0
 10 14  4  0
 10 32  4  0
 11 20  4  0
 11 29  4  0
 11 30  1  0
 13 14  4  0
 13 24  1  0
 17 21  4  0
 19 32  1  0
 22 27  4  0
 22 29  4  0
 23 31  4  0
 25 32  4  0
 26 33  4  0
 30 33  4  0
M  END
$$$$

 Created by Python create_sdf_string function

 34 95  0  0  0  0  0  0  0  0999 V2000
   10.3438   -2.6998   22.0940 O   0  0  0  0  0  0  0  0  0  0  0  0
   10.9275   -5.2655   22.9732 O   0  0  0  0  0  0  0  0  0  0  0  0
    1.0867   -8.0793   18.0579 N   0  0  0  0  0  0  0  0  0  0  0  0
    3.4822   -9.1982   15.6360 C   0  0  0  0  0  0  0  0  0  0  0  0
    9.8946   -3.5811   18.2388 N   0  0  0  0  0  0  0  0  0  0  0  0
    5.3951   -6.8401   15.9615 N   0  0  0  0  0  0  0  0  0  0  0  0
    9.5923   -5.8377   20.1999 C   0  0  0  0  0  0  0  0  0  0  0  0
    2.0806   -9.4707   16.2991 C   0  0  0  0  0  0  0  0  0  0  0  0
   10.3073   -4.3756   17.5905 C   0  0  0  0  0  0  0  0  0  0  0  0
    9.7345   -6.0880   18.6512 O   0  0  0  0  0  0  0  0  0  0  0  0
    4.4855   -9.2919   18.4053 N   0  0  0  0  0  0  0  0  0  0  0  0
    8.4889   -8.0683   17.4762 C   0  0  0  0  0  0  0  0  0  0  0  0
    5.5294   -8.8844   16.2284 N   0  0  0  0  0  0  0  0  0  0  0  0
   10.7553   -4.6286   21.6314 C   0  0  0  0  0  0  0  0  0  0  0  0
    1.9773  -11.8542   21.7458 C   0  0  0  0  0  0  0  0  0  0  0  0
    9.6607   -6.7462   18.5949 Cl  0  0  0  0  0  0  0  0  0  0  0  0
   -0.3973  -12.5184   21.4354 C   0  0  0  0  0  0  0  0  0  0  0  0
    1.4616   -9.7574   17.1583 C   0  0  0  0  0  0  0  0  0  0  0  0
   10.0618   -4.2537   16.5181 C   0  0  0  0  0  0  0  0  0  0  0  0
   11.1585   -3.0917   19.5104 C   0  0  0  0  0  0  0  0  0  0  0  0
   -0.2418  -12.8718   22.4026 C   0  0  0  0  0  0  0  0  0  0  0  0
    0.1203  -10.7894   20.1801 C   0  0  0  0  0  0  0  0  0  0  0  0
    2.6508  -10.4224   18.7406 F   0  0  0  0  0  0  0  0  0  0  0  0
    1.8636   -8.1448   16.3171 N   0  0  0  0  0  0  0  0  0  0  0  0
   10.5987   -4.2474   19.9998 C   0  0  0  0  0  0  0  0  0  0  0  0
    4.1236  -10.3422   18.7855 F   0  0  0  0  0  0  0  0  0  0  0  0
    6.4385   -5.8811   15.5633 O   0  0  0  0  0  0  0  0  0  0  0  0
    8.0001   -6.3554   15.7948 He  0  0  0  0  0  0  0  0  0  0  0  0
    1.0653  -12.4148   21.9292 He  0  0  0  0  0  0  0  0  0  0  0  0
    9.6114   -5.9207   15.8915 He  0  0  0  0  0  0  0  0  0  0  0  0
    1.5792  -11.0859   19.9839 He  0  0  0  0  0  0  0  0  0  0  0  0
    6.8609   -8.6061   18.5043 He  0  0  0  0  0  0  0  0  0  0  0  0
    4.4665   -8.6144   18.5241 He  0  0  0  0  0  0  0  0  0  0  0  0
    6.7944   -7.1225   16.4449 He  0  0  0  0  0  0  0  0  0  0  0  0
  1  4  2  0
  1 11  4  0
  1 13  4  0
  1 14  2  0
  1 16  3  0
  1 25  3  0
  2  3  2  0
  2  4  1  0
  2 14  1  0
  2 16  1  0
  2 17  1  0
  2 24  2  0
  2 26  4  0
  3  5  1  0
  3 10  3  0
  3 15  4  0
  3 21  3  0
  3 22  3  0
  3 23  2  0
  3 25  3  0
  4 10  2  0
  4 11  3  0
  4 12  2  0
  4 16  2  0
  4 19  2  0
  4 25  3  0
  4 26  2  0
  4 27  4  0
  5 11  3  0
  5 20  4  0
  5 23  1  0
  5 24  1  0
  6  8  4  0
  6  9  4  0
  6 10  2  0
  6 13  1  0
  6 15  2  0
  6 18  4  0
  6 19  4  0
  6 24  4  0
  7 13  3  0
  7 16  1  0
  7 20  1  0
  7 25  4  0
  8  9  3  0
  8 11  3  0
  8 14  4  0
  8 15  3  0
  8 18  1  0
  8 20  3  0
  8 24  3  0
  8 25  3  0
  8 26  2  0
  9 10  4  0
  9 14  2  0
  9 19  1  0
  9 24  3  0
 10 11  1  0
 10 15  1  0
 10 19  1  0
 10 20  3  0
 10 21  2  0
 10 24  3  0
 11 21  3  0
 11 22  4  0
 11 25  2  0
 11 26  2  0
 11 27  4  0
 12 15  3  0
 12 22  1  0
 12 24  3  0
 12 26  3  0
 13 18  4  0
 13 20  3  0
 13 21  1  0
 13 24  3  0
 14 20  1  0
 14 25  2  0
 15 17  3  0
 15 20  1  0
 15 21  2  0
 16 17  3  0
 16 20  3  0
 16 21  4  0
 16 25  4  0
 17 22  4  0
 17 24  1  0
 19 24  4  0
 20 23  1  0
 20 25  4  0
 21 24  2  0
 22 24  3  0
 23 24  2  0
 23 26  4  0
 23 27  2  0
M  END
$$$$

 Created by Python create_sdf_string function

 34 34  0  0  0  0  0  0  0  0999 V2000
   10.5874   -3.0320   22.2801 O   0  0  0  0  0  0  0  0  0  0  0  0
    7.8208   -6.2824   16.0221 C   0  0  0  0  0  0  0  0  0  0  0  0
   10.9048   -5.1536   22.5377 O   0  0  0  0  0  0  0  0  0  0  0  0
    1.3641  -10.1518   17.8774 N   0  0  0  0  0  0  0  0  0  0  0  0
    1.3517  -12.4188   22.1525 C   0  0  0  0  0  0  0  0  0  0  0  0
    3.5585   -8.6655   15.9854 C   0  0  0  0  0  0  0  0  0  0  0  0
   10.6077   -3.3398   18.2255 C   0  0  0  0  0  0  0  0  0  0  0  0
    5.8487   -7.7202   16.2842 C   0  0  0  0  0  0  0  0  0  0  0  0
    9.0616   -5.7388   16.0490 N   0  0  0  0  0  0  0  0  0  0  0  0
   10.2109   -5.6576   19.8022 C   0  0  0  0  0  0  0  0  0  0  0  0
    1.4743  -11.2536   20.1041 C   0  0  0  0  0  0  0  0  0  0  0  0
    2.3805   -9.1710   16.6077 C   0  0  0  0  0  0  0  0  0  0  0  0
   10.1243   -4.4889   17.7178 C   0  0  0  0  0  0  0  0  0  0  0  0
    9.8482   -5.6948   18.4544 C   0  0  0  0  0  0  0  0  0  0  0  0
    4.6331   -9.5707   17.9451 N   0  0  0  0  0  0  0  0  0  0  0  0
    6.6688   -8.4762   18.1631 C   0  0  0  0  0  0  0  0  0  0  0  0
    8.3738   -7.9581   17.5889 C   0  0  0  0  0  0  0  0  0  0  0  0
    5.1849   -8.2254   16.4399 C   0  0  0  0  0  0  0  0  0  0  0  0
   10.6917   -4.2172   21.7566 C   0  0  0  0  0  0  0  0  0  0  0  0
    2.0547  -11.9462   21.1183 C   0  0  0  0  0  0  0  0  0  0  0  0
    9.3777   -6.8202   18.0338 C   0  0  0  0  0  0  0  0  0  0  0  0
   -0.5889  -11.8321   21.1088 C   0  0  0  0  0  0  0  0  0  0  0  0
    1.3877   -9.6291   17.2318 C   0  0  0  0  0  0  0  0  0  0  0  0
    9.8317   -4.5502   16.2425 C   0  0  0  0  0  0  0  0  0  0  0  0
   10.7498   -3.2757   19.5879 C   0  0  0  0  0  0  0  0  0  0  0  0
    4.9552   -9.1089   17.5967 C   0  0  0  0  0  0  0  0  0  0  0  0
    0.0376  -12.4773   22.1083 C   0  0  0  0  0  0  0  0  0  0  0  0
    7.3930   -7.3725   16.5607 C   0  0  0  0  0  0  0  0  0  0  0  0
    0.0977  -11.1621   20.1113 C   0  0  0  0  0  0  0  0  0  0  0  0
    2.3549  -10.6353   18.9706 C   0  0  0  0  0  0  0  0  0  0  0  0
    2.5773   -8.7780   16.1246 N   0  0  0  0  0  0  0  0  0  0  0  0
   10.5539   -4.3819   20.3677 C   0  0  0  0  0  0  0  0  0  0  0  0
    3.5880  -10.5172   18.7877 N   0  0  0  0  0  0  0  0  0  0  0  0
    6.9349   -5.7195   15.2323 O   0  0  0  0  0  0  0  0  0  0  0  0
  1 19  2  0
  2  9  1  0
  2 28  1  0
  2 34  2  0
  3 19  1  0
  4 23  4  0
  4 30  4  0
  5 20  4  0
  5 27  4  0
  7 13  4  0
  7 25  4  0
  8 18  1  0
  8 28  1  0
  9 24  1  0
 10 14  4  0
 10 32  4  0
 11 20  4  0
 11 29  4  0
 11 30  1  0
 12 23  4  0
 12 31  4  0
 13 14  4  0
 13 24  1  0
 14 21  1  0
 15 26  4  0
 15 33  4  0
 16 17  1  0
 17 21  1  0
 17 28  1  0
 19 32  1  0
 22 27  4  0
 22 29  4  0
 25 32  4  0
 30 33  4  0
M  END
$$$$

 Created by Python create_sdf_string function

 34 70  0  0  0  0  0  0  0  0999 V2000
   10.3449   -3.5169   22.5256 O   0  0  0  0  0  0  0  0  0  0  0  0
    7.6243   -6.9246   16.0868 C   0  0  0  0  0  0  0  0  0  0  0  0
   10.8581   -4.8220   22.2615 N   0  0  0  0  0  0  0  0  0  0  0  0
    1.7319  -11.9312   22.1235 C   0  0  0  0  0  0  0  0  0  0  0  0
    5.3247   -6.3923   16.8520 C   0  0  0  0  0  0  0  0  0  0  0  0
    1.7450  -11.1834   19.8547 F   0  0  0  0  0  0  0  0  0  0  0  0
    9.6113   -3.7623   18.2561 C   0  0  0  0  0  0  0  0  0  0  0  0
    9.7348   -6.1486   18.0894 C   0  0  0  0  0  0  0  0  0  0  0  0
    5.8965   -9.5467   15.8815 C   0  0  0  0  0  0  0  0  0  0  0  0
    8.3585   -7.5746   17.8510 C   0  0  0  0  0  0  0  0  0  0  0  0
   11.1941   -4.1811   21.8511 F   0  0  0  0  0  0  0  0  0  0  0  0
    1.8577  -11.7660   20.9578 C   0  0  0  0  0  0  0  0  0  0  0  0
   -0.4033  -11.9071   21.2511 C   0  0  0  0  0  0  0  0  0  0  0  0
    1.3746   -9.6025   17.4829 C   0  0  0  0  0  0  0  0  0  0  0  0
    9.8229   -4.6307   16.0692 C   0  0  0  0  0  0  0  0  0  0  0  0
   10.5067   -4.0333   19.6313 C   0  0  0  0  0  0  0  0  0  0  0  0
    5.1390   -8.6984   17.4146 C   0  0  0  0  0  0  0  0  0  0  0  0
   -0.8130  -12.1786   22.2356 C   0  0  0  0  0  0  0  0  0  0  0  0
    7.3045   -6.8320   17.4321 O   0  0  0  0  0  0  0  0  0  0  0  0
    0.4172  -11.4772   20.2998 C   0  0  0  0  0  0  0  0  0  0  0  0
    2.3048  -10.7316   19.4980 C   0  0  0  0  0  0  0  0  0  0  0  0
    3.9422   -8.1187   15.8920 P   0  0  0  0  0  0  0  0  0  0  0  0
    9.9581   -4.5407   19.7518 Se  0  0  0  0  0  0  0  0  0  0  0  0
    3.0392  -10.8326   19.1602 N   0  0  0  0  0  0  0  0  0  0  0  0
    0.6022   -9.6664   19.0591 He  0  0  0  0  0  0  0  0  0  0  0  0
    5.7196   -8.5046   15.4268 He  0  0  0  0  0  0  0  0  0  0  0  0
   11.1255   -3.3125   18.6852 He  0  0  0  0  0  0  0  0  0  0  0  0
    8.2840   -6.2913   16.7573 He  0  0  0  0  0  0  0  0  0  0  0  0
    9.9850   -5.2198   19.6600 He  0  0  0  0  0  0  0  0  0  0  0  0
    2.5107   -8.9868   18.0900 He  0  0  0  0  0  0  0  0  0  0  0  0
    5.7428   -9.7146   17.7472 He  0  0  0  0  0  0  0  0  0  0  0  0
    6.3009   -7.8967   16.3469 He  0  0  0  0  0  0  0  0  0  0  0  0
    9.6036   -6.4987   17.7114 He  0  0  0  0  0  0  0  0  0  0  0  0
    7.2516   -6.5129   15.4447 He  0  0  0  0  0  0  0  0  0  0  0  0
  1  5  3  0
  1  8  3  0
  1  9  2  0
  1 11  2  0
  1 17  3  0
  2  9  1  0
  2 10  3  0
  2 18  2  0
  2 19  2  0
  2 20  4  0
  2 22  4  0
  3 16  4  0
  3 18  4  0
  4  8  1  0
  4 12  4  0
  4 17  3  0
  4 18  4  0
  4 20  4  0
  4 22  3  0
  5  7  4  0
  5 10  4  0
  5 11  2  0
  5 12  2  0
  5 13  4  0
  5 16  4  0
  5 17  2  0
  5 20  3  0
  5 21  4  0
  6  7  2  0
  6  8  2  0
  6 12  4  0
  6 14  2  0
  6 17  4  0
  6 18  1  0
  6 20  4  0
  6 21  2  0
  6 22  3  0
  7  8  3  0
  7 15  1  0
  7 17  3  0
  9 16  3  0
  9 20  4  0
  9 24  4  0
 10 11  1  0
 10 15  4  0
 10 19  4  0
 11 21  4  0
 11 22  3  0
 11 23  1  0
 12 14  1  0
 12 16  4  0
 12 18  2  0
 13 17  3  0
 13 18  1  0
 13 19  1  0
 13 20  4  0
 13 22  2  0
 14 20  4  0
 14 22  3  0
 15 22  3  0
 16 19  1  0
 16 20  1  0
 16 23  4  0
 17 18  2  0
 17 21  4  0
 17 23  3  0
 18 19  3  0
 19 20  1  0
 21 24  3  0
 22 24  1  0
M  END
$$$$

 Created by Python create_sdf_string function

 34 31  0  0  0  0  0  0  0  0999 V2000
   10.3621   -3.2198   22.4189 O   0  0  0  0  0  0  0  0  0  0  0  0
    7.6134   -6.6998   15.9111 C   0  0  0  0  0  0  0  0  0  0  0  0
   11.1159   -5.2393   22.4719 O   0  0  0  0  0  0  0  0  0  0  0  0
    1.0923  -10.2980   18.0146 N   0  0  0  0  0  0  0  0  0  0  0  0
    1.2960  -12.2375   22.3491 C   0  0  0  0  0  0  0  0  0  0  0  0
    5.5102   -8.5703   15.6255 C   0  0  0  0  0  0  0  0  0  0  0  0
   10.5993   -3.3245   18.2446 C   0  0  0  0  0  0  0  0  0  0  0  0
    5.3733   -7.4813   16.5762 C   0  0  0  0  0  0  0  0  0  0  0  0
    8.7103   -5.9608   16.4623 N   0  0  0  0  0  0  0  0  0  0  0  0
   10.1838   -5.6197   19.8240 C   0  0  0  0  0  0  0  0  0  0  0  0
    1.3884  -11.3851   20.1618 C   0  0  0  0  0  0  0  0  0  0  0  0
    3.0271   -9.6920   17.5073 C   0  0  0  0  0  0  0  0  0  0  0  0
   10.0985   -4.4689   17.7029 C   0  0  0  0  0  0  0  0  0  0  0  0
    9.8611   -5.5975   18.4320 C   0  0  0  0  0  0  0  0  0  0  0  0
    5.5720   -9.1956   15.9760 C   0  0  0  0  0  0  0  0  0  0  0  0
    5.4198   -9.2406   17.6433 C   0  0  0  0  0  0  0  0  0  0  0  0
    8.4726   -7.5767   18.0366 C   0  0  0  0  0  0  0  0  0  0  0  0
    6.4235   -7.9160   16.6703 C   0  0  0  0  0  0  0  0  0  0  0  0
   10.7128   -4.2991   21.8173 C   0  0  0  0  0  0  0  0  0  0  0  0
    1.9422  -11.8954   21.2589 C   0  0  0  0  0  0  0  0  0  0  0  0
    9.1398   -6.5311   17.6097 C   0  0  0  0  0  0  0  0  0  0  0  0
   -0.6924  -11.8123   21.2533 C   0  0  0  0  0  0  0  0  0  0  0  0
    1.6015   -9.6692   17.1929 C   0  0  0  0  0  0  0  0  0  0  0  0
    9.6427   -4.4823   16.3142 C   0  0  0  0  0  0  0  0  0  0  0  0
   10.8382   -3.2939   19.6094 C   0  0  0  0  0  0  0  0  0  0  0  0
    4.9607   -8.9630   17.2636 C   0  0  0  0  0  0  0  0  0  0  0  0
   -0.0359  -12.1956   22.3545 C   0  0  0  0  0  0  0  0  0  0  0  0
    7.3160   -7.5871   17.5046 C   0  0  0  0  0  0  0  0  0  0  0  0
   -0.0512  -11.4631   20.2436 C   0  0  0  0  0  0  0  0  0  0  0  0
    2.0174  -10.7897   19.0243 C   0  0  0  0  0  0  0  0  0  0  0  0
    3.8681   -8.6785   16.3005 C   0  0  0  0  0  0  0  0  0  0  0  0
   10.5700   -4.4068   20.3584 C   0  0  0  0  0  0  0  0  0  0  0  0
    3.2844  -10.6040   18.8700 N   0  0  0  0  0  0  0  0  0  0  0  0
    7.1411   -6.3230   14.9332 O   0  0  0  0  0  0  0  0  0  0  0  0
  1 19  2  0
  2  9  4  0
  2 34  2  0
  3 19  1  0
  4 23  4  0
  4 30  4  0
  5 20  4  0
  5 27  4  0
  6 15  4  0
  7 13  4  0
  7 25  4  0
  9 21  4  0
  9 24  1  0
 10 14  4  0
 10 32  4  0
 11 20  4  0
 11 29  4  0
 11 30  1  0
 12 23  4  0
 12 33  4  0
 13 14  4  0
 13 24  1  0
 14 21  4  0
 16 26  4  0
 17 21  4  0
 17 28  4  0
 19 32  1  0
 22 27  4  0
 22 29  4  0
 25 32  4  0
 30 33  4  0
M  END
$$$$

 Created by Python create_sdf_string function

 34 85  0  0  0  0  0  0  0  0999 V2000
    7.3663   -6.6000   15.6619 C   0  0  0  0  0  0  0  0  0  0  0  0
   11.3819   -5.4998   22.3823 O   0  0  0  0  0  0  0  0  0  0  0  0
    1.5159  -12.2194   22.4530 C   0  0  0  0  0  0  0  0  0  0  0  0
   10.8095   -3.5944   17.9345 C   0  0  0  0  0  0  0  0  0  0  0  0
    8.8385   -5.1817   17.3116 C   0  0  0  0  0  0  0  0  0  0  0  0
   10.3566   -6.3122   20.0932 C   0  0  0  0  0  0  0  0  0  0  0  0
    0.9433  -11.3122   20.2495 C   0  0  0  0  0  0  0  0  0  0  0  0
    2.2175   -9.9246   14.8040 C   0  0  0  0  0  0  0  0  0  0  0  0
   10.0322   -4.2858   17.3047 C   0  0  0  0  0  0  0  0  0  0  0  0
    4.8413   -7.4838   15.4309 C   0  0  0  0  0  0  0  0  0  0  0  0
    6.1481   -9.9224   17.8117 O   0  0  0  0  0  0  0  0  0  0  0  0
    8.3849   -7.5944   18.3461 C   0  0  0  0  0  0  0  0  0  0  0  0
   10.0534   -4.0081   21.0680 C   0  0  0  0  0  0  0  0  0  0  0  0
    1.9769  -12.4972   21.5735 C   0  0  0  0  0  0  0  0  0  0  0  0
   -0.4802  -12.0511   21.2993 F   0  0  0  0  0  0  0  0  0  0  0  0
    1.4217   -9.3065   16.9104 C   0  0  0  0  0  0  0  0  0  0  0  0
   10.4333   -4.6461   16.2599 C   0  0  0  0  0  0  0  0  0  0  0  0
   11.0301   -3.5082   19.7187 F   0  0  0  0  0  0  0  0  0  0  0  0
    6.8387   -7.0736   17.8008 F   0  0  0  0  0  0  0  0  0  0  0  0
   -0.0562  -11.2674   20.5506 C   0  0  0  0  0  0  0  0  0  0  0  0
    1.9822  -10.5975   19.0398 C   0  0  0  0  0  0  0  0  0  0  0  0
    4.0889   -8.3186   16.9873 C   0  0  0  0  0  0  0  0  0  0  0  0
   11.9925   -4.1490   19.7576 C   0  0  0  0  0  0  0  0  0  0  0  0
    3.2212  -10.7315   19.0670 N   0  0  0  0  0  0  0  0  0  0  0  0
    7.2998   -6.3016   15.1850 O   0  0  0  0  0  0  0  0  0  0  0  0
   11.0009   -3.1456   22.2347 He  0  0  0  0  0  0  0  0  0  0  0  0
    2.2910  -10.9793   17.1318 He  0  0  0  0  0  0  0  0  0  0  0  0
    5.4003   -9.1851   14.9485 He  0  0  0  0  0  0  0  0  0  0  0  0
    5.7697   -8.9235   16.6466 He  0  0  0  0  0  0  0  0  0  0  0  0
    9.8900   -5.9770   17.9085 He  0  0  0  0  0  0  0  0  0  0  0  0
    3.5015   -7.4238   17.2826 He  0  0  0  0  0  0  0  0  0  0  0  0
    8.9236   -6.4803   18.7290 He  0  0  0  0  0  0  0  0  0  0  0  0
    4.1812   -9.6564   15.1683 He  0  0  0  0  0  0  0  0  0  0  0  0
   -0.2348  -11.7408   22.3230 He  0  0  0  0  0  0  0  0  0  0  0  0
  1  2  2  0
  1  8  3  0
  1 14  2  0
  1 16  2  0
  1 25  2  0
  2  8  2  0
  2 11  1  0
  2 12  2  0
  2 13  1  0
  2 19  4  0
  2 24  2  0
  3  5  2  0
  3  8  1  0
  3 12  3  0
  3 14  4  0
  3 17  1  0
  3 19  3  0
  3 22  1  0
  4  9  4  0
  4 11  2  0
  4 18  4  0
  4 19  1  0
  4 20  4  0
  4 24  2  0
  5  6  1  0
  5  7  1  0
  5  9  2  0
  5 11  2  0
  5 12  3  0
  5 14  3  0
  5 16  3  0
  5 20  1  0
  5 23  2  0
  5 25  3  0
  6 19  2  0
  6 23  4  0
  7 13  1  0
  7 14  4  0
  7 19  2  0
  7 20  4  0
  7 22  2  0
  7 25  3  0
  8 12  2  0
  8 14  2  0
  8 16  1  0
  8 22  3  0
  9 11  3  0
  9 17  1  0
  9 18  4  0
  9 19  2  0
 10 11  3  0
 10 12  2  0
 10 13  4  0
 10 14  1  0
 10 18  4  0
 10 24  4  0
 10 25  3  0
 11 13  2  0
 11 14  3  0
 11 15  1  0
 11 19  1  0
 11 21  3  0
 11 22  2  0
 11 23  1  0
 12 19  4  0
 12 22  3  0
 13 15  1  0
 13 23  1  0
 14 19  4  0
 14 23  1  0
 15 21  4  0
 16 18  1  0
 16 19  1  0
 16 21  4  0
 17 19  2  0
 17 22  3  0
 18 19  3  0
 18 20  4  0
 18 21  1  0
 18 22  2  0
 18 23  4  0
 19 24  4  0
 19 25  1  0
 21 23  2  0
 21 24  4  0
M  END
$$$$

 Created by Python create_sdf_string function

 34 30  0  0  0  0  0  0  0  0999 V2000
   10.8510   -3.0825   22.1215 O   0  0  0  0  0  0  0  0  0  0  0  0
    7.4704   -6.4675   15.9202 C   0  0  0  0  0  0  0  0  0  0  0  0
   11.0576   -5.2542   22.3017 O   0  0  0  0  0  0  0  0  0  0  0  0
    2.1883  -10.0782   17.7231 C   0  0  0  0  0  0  0  0  0  0  0  0
    1.2797  -12.2884   22.3989 C   0  0  0  0  0  0  0  0  0  0  0  0
    5.1255   -8.4804   15.6193 C   0  0  0  0  0  0  0  0  0  0  0  0
   10.9062   -3.4664   18.0032 C   0  0  0  0  0  0  0  0  0  0  0  0
    6.0824   -8.2538   16.9048 C   0  0  0  0  0  0  0  0  0  0  0  0
    8.6744   -5.9558   16.4832 C   0  0  0  0  0  0  0  0  0  0  0  0
   10.2741   -5.6171   19.6219 C   0  0  0  0  0  0  0  0  0  0  0  0
    1.2736  -11.4937   20.2195 C   0  0  0  0  0  0  0  0  0  0  0  0
    2.0442   -9.3221   15.8758 C   0  0  0  0  0  0  0  0  0  0  0  0
   10.2330   -4.5871   17.4870 C   0  0  0  0  0  0  0  0  0  0  0  0
    9.8895   -5.6355   18.2859 C   0  0  0  0  0  0  0  0  0  0  0  0
    5.0830   -7.7458   15.5133 C   0  0  0  0  0  0  0  0  0  0  0  0
    5.9480   -8.8746   17.9702 O   0  0  0  0  0  0  0  0  0  0  0  0
    8.2174   -7.5194   18.1610 C   0  0  0  0  0  0  0  0  0  0  0  0
    3.7417   -8.4206   16.7993 C   0  0  0  0  0  0  0  0  0  0  0  0
   10.9274   -4.2968   21.6003 C   0  0  0  0  0  0  0  0  0  0  0  0
    1.9428  -12.0190   21.2368 C   0  0  0  0  0  0  0  0  0  0  0  0
    8.9934   -6.5061   17.6792 C   0  0  0  0  0  0  0  0  0  0  0  0
   -0.7169  -11.6933   21.4613 C   0  0  0  0  0  0  0  0  0  0  0  0
    1.5662   -9.8013   17.0756 C   0  0  0  0  0  0  0  0  0  0  0  0
    9.9011   -4.5855   16.1728 C   0  0  0  0  0  0  0  0  0  0  0  0
   11.0963   -3.3424   19.3883 C   0  0  0  0  0  0  0  0  0  0  0  0
    4.0087   -8.9918   15.5746 C   0  0  0  0  0  0  0  0  0  0  0  0
   -0.0198  -12.1382   22.4785 C   0  0  0  0  0  0  0  0  0  0  0  0
    7.0948   -7.7289   17.3426 C   0  0  0  0  0  0  0  0  0  0  0  0
   -0.1057  -11.3759   20.2580 C   0  0  0  0  0  0  0  0  0  0  0  0
    1.9697  -10.9597   19.0171 C   0  0  0  0  0  0  0  0  0  0  0  0
    3.7788   -9.0293   16.9405 C   0  0  0  0  0  0  0  0  0  0  0  0
   10.8024   -4.3879   20.1825 C   0  0  0  0  0  0  0  0  0  0  0  0
    2.9019  -10.8660   18.7532 N   0  0  0  0  0  0  0  0  0  0  0  0
    7.0412   -5.9626   14.9648 O   0  0  0  0  0  0  0  0  0  0  0  0
  1 19  2  0
  2  9  4  0
  2 34  2  0
  3 19  1  0
  4 23  4  0
  4 33  4  0
  5 20  4  0
  5 27  4  0
  6 15  4  0
  7 13  4  0
  7 25  4  0
  8 28  1  0
  9 21  4  0
 10 14  4  0
 10 32  4  0
 11 20  4  0
 11 29  4  0
 11 30  1  0
 12 23  4  0
 13 14  4  0
 13 24  1  0
 14 21  1  0
 17 21  4  0
 17 28  4  0
 18 31  4  0
 19 32  1  0
 22 27  4  0
 22 29  4  0
 25 32  4  0
 30 33  4  0
M  END
$$$$

 Created by Python create_sdf_string function

 34 94  0  0  0  0  0  0  0  0999 V2000
   11.1840   -3.2870   22.6004 O   0  0  0  0  0  0  0  0  0  0  0  0
   10.8540   -5.2038   22.2208 N   0  0  0  0  0  0  0  0  0  0  0  0
    2.7511   -9.1219   17.4339 N   0  0  0  0  0  0  0  0  0  0  0  0
    0.7949  -11.8911   22.8414 C   0  0  0  0  0  0  0  0  0  0  0  0
   10.5071   -3.6944   18.2149 C   0  0  0  0  0  0  0  0  0  0  0  0
    6.3970   -7.9376   16.6163 O   0  0  0  0  0  0  0  0  0  0  0  0
    9.8364   -6.3449   19.6009 C   0  0  0  0  0  0  0  0  0  0  0  0
    1.2716  -11.5292   20.0081 C   0  0  0  0  0  0  0  0  0  0  0  0
    1.3211   -9.3327   15.6966 N   0  0  0  0  0  0  0  0  0  0  0  0
    9.7996   -6.1534   18.9668 C   0  0  0  0  0  0  0  0  0  0  0  0
    6.1373   -9.3882   18.2037 F   0  0  0  0  0  0  0  0  0  0  0  0
    8.8474   -7.6971   18.1173 C   0  0  0  0  0  0  0  0  0  0  0  0
    3.5146   -9.7177   16.9292 P   0  0  0  0  0  0  0  0  0  0  0  0
   11.1289   -4.3692   21.9184 C   0  0  0  0  0  0  0  0  0  0  0  0
    2.4160  -12.5702   20.9127 C   0  0  0  0  0  0  0  0  0  0  0  0
    8.7388   -6.8511   17.5445 P   0  0  0  0  0  0  0  0  0  0  0  0
    1.9111   -9.4235   17.0690 C   0  0  0  0  0  0  0  0  0  0  0  0
   10.0817   -4.9975   15.8390 O   0  0  0  0  0  0  0  0  0  0  0  0
   11.0155   -3.3878   19.7033 C   0  0  0  0  0  0  0  0  0  0  0  0
    2.1538   -8.3467   15.6236 I   0  0  0  0  0  0  0  0  0  0  0  0
   -0.5295  -12.2852   22.8608 C   0  0  0  0  0  0  0  0  0  0  0  0
    0.0557  -11.9442   20.8035 P   0  0  0  0  0  0  0  0  0  0  0  0
    2.2171  -10.8599   18.9118 C   0  0  0  0  0  0  0  0  0  0  0  0
    3.7165   -7.5360   19.3486 N   0  0  0  0  0  0  0  0  0  0  0  0
    7.4988   -6.0003   15.0359 O   0  0  0  0  0  0  0  0  0  0  0  0
    7.7717   -6.3525   16.1045 He  0  0  0  0  0  0  0  0  0  0  0  0
    6.4853   -8.5125   15.4056 He  0  0  0  0  0  0  0  0  0  0  0  0
    7.9366   -5.2931   17.1922 He  0  0  0  0  0  0  0  0  0  0  0  0
   10.1405   -4.5786   17.0536 He  0  0  0  0  0  0  0  0  0  0  0  0
    6.1860   -7.4958   14.5991 He  0  0  0  0  0  0  0  0  0  0  0  0
   -0.7699  -11.0467   21.1936 He  0  0  0  0  0  0  0  0  0  0  0  0
    7.5815   -8.2249   17.1474 He  0  0  0  0  0  0  0  0  0  0  0  0
   10.7998   -4.7200   20.1475 He  0  0  0  0  0  0  0  0  0  0  0  0
    2.4053  -10.6414   18.7082 He  0  0  0  0  0  0  0  0  0  0  0  0
  1  4  3  0
  1  5  3  0
  1  6  4  0
  1 15  3  0
  1 20  1  0
  1 25  4  0
  2  5  1  0
  2  7  2  0
  2  9  2  0
  2 14  1  0
  2 16  3  0
  2 23  4  0
  3  5  2  0
  3 11  4  0
  3 15  1  0
  3 16  2  0
  3 18  2  0
  4  6  3  0
  4 11  4  0
  4 12  1  0
  4 13  3  0
  4 16  3  0
  4 20  4  0
  4 21  4  0
  4 24  4  0
  4 25  3  0
  5  6  3  0
  5  9  4  0
  5 14  1  0
  5 15  1  0
  5 16  4  0
  5 19  4  0
  5 20  3  0
  5 24  1  0
  5 25  2  0
  6 10  1  0
  6 13  4  0
  6 17  4  0
  6 19  2  0
  6 20  2  0
  6 24  1  0
  6 25  4  0
  7 14  2  0
  7 16  3  0
  7 24  4  0
  7 25  2  0
  8  9  2  0
  8 11  1  0
  8 20  1  0
  8 22  4  0
  8 23  1  0
  8 24  4  0
  9 10  3  0
  9 11  4  0
  9 12  2  0
  9 14  3  0
  9 18  1  0
  9 23  1  0
  9 24  3  0
 10 11  1  0
 10 12  2  0
 10 16  1  0
 10 17  4  0
 10 21  4  0
 10 24  3  0
 11 12  4  0
 11 14  3  0
 11 15  1  0
 11 16  2  0
 11 17  1  0
 11 24  1  0
 12 14  1  0
 12 15  4  0
 12 16  2  0
 12 20  3  0
 13 14  4  0
 13 16  4  0
 13 18  1  0
 13 21  1  0
 13 22  1  0
 13 23  2  0
 13 24  4  0
 14 18  1  0
 14 19  3  0
 14 20  1  0
 15 20  3  0
 15 24  3  0
 16 17  3  0
 16 20  2  0
 17 18  2  0
 17 23  3  0
 20 23  2  0
 20 24  4  0
 23 25  4  0
M  END
$$$$

 Created by Python create_sdf_string function

 34 29  0  0  0  0  0  0  0  0999 V2000
   11.0535   -3.2638   22.2368 O   0  0  0  0  0  0  0  0  0  0  0  0
    7.8368   -6.4422   16.1470 C   0  0  0  0  0  0  0  0  0  0  0  0
   11.0502   -5.3502   22.4312 O   0  0  0  0  0  0  0  0  0  0  0  0
    2.9860   -9.9286   17.7968 N   0  0  0  0  0  0  0  0  0  0  0  0
    1.0300  -12.1463   22.5629 C   0  0  0  0  0  0  0  0  0  0  0  0
    6.3530   -8.0795   15.8649 C   0  0  0  0  0  0  0  0  0  0  0  0
   10.6240   -3.6090   18.1651 C   0  0  0  0  0  0  0  0  0  0  0  0
    6.1318   -8.1990   16.8831 C   0  0  0  0  0  0  0  0  0  0  0  0
    8.7864   -5.8347   16.7310 C   0  0  0  0  0  0  0  0  0  0  0  0
   10.2122   -5.7769   19.7238 C   0  0  0  0  0  0  0  0  0  0  0  0
    1.2503  -11.5733   20.2485 C   0  0  0  0  0  0  0  0  0  0  0  0
    1.4885   -9.3375   16.3582 N   0  0  0  0  0  0  0  0  0  0  0  0
   10.0282   -4.6788   17.5766 C   0  0  0  0  0  0  0  0  0  0  0  0
    9.7346   -5.9334   18.4720 C   0  0  0  0  0  0  0  0  0  0  0  0
    5.9227   -7.5575   15.3586 C   0  0  0  0  0  0  0  0  0  0  0  0
    5.9469   -8.7610   17.9731 C   0  0  0  0  0  0  0  0  0  0  0  0
    8.8333   -7.6816   17.9641 C   0  0  0  0  0  0  0  0  0  0  0  0
    3.9796   -8.9088   16.8424 C   0  0  0  0  0  0  0  0  0  0  0  0
   10.9597   -4.4400   21.6727 C   0  0  0  0  0  0  0  0  0  0  0  0
    1.7389  -12.0191   21.3391 C   0  0  0  0  0  0  0  0  0  0  0  0
    8.6504   -6.9074   17.3843 C   0  0  0  0  0  0  0  0  0  0  0  0
   -0.7830  -11.6716   21.4880 C   0  0  0  0  0  0  0  0  0  0  0  0
    1.7305   -9.6566   17.0356 C   0  0  0  0  0  0  0  0  0  0  0  0
    9.6499   -4.6463   16.0807 O   0  0  0  0  0  0  0  0  0  0  0  0
   10.8970   -3.5025   19.4560 C   0  0  0  0  0  0  0  0  0  0  0  0
    2.6562   -8.7921   15.9816 C   0  0  0  0  0  0  0  0  0  0  0  0
   -0.2004  -11.9397   22.5793 C   0  0  0  0  0  0  0  0  0  0  0  0
    7.2313   -8.2227   17.1339 C   0  0  0  0  0  0  0  0  0  0  0  0
   -0.0767  -11.4595   20.2709 C   0  0  0  0  0  0  0  0  0  0  0  0
    1.9671  -11.2045   19.0048 C   0  0  0  0  0  0  0  0  0  0  0  0
    4.2845   -8.9727   17.3718 C   0  0  0  0  0  0  0  0  0  0  0  0
   10.6909   -4.5998   20.2699 C   0  0  0  0  0  0  0  0  0  0  0  0
    2.7576  -10.6721   18.6265 N   0  0  0  0  0  0  0  0  0  0  0  0
    7.1967   -5.7646   15.3220 O   0  0  0  0  0  0  0  0  0  0  0  0
  1 19  2  0
  2  9  1  0
  2 21  1  0
  2 34  2  0
  3 19  1  0
  4 23  4  0
  4 33  4  0
  5 20  4  0
  5 27  4  0
  6 15  4  0
  7 13  4  0
  7 25  4  0
 10 14  4  0
 10 32  4  0
 11 20  4  0
 11 29  4  0
 11 30  1  0
 12 23  4  0
 12 26  4  0
 13 14  4  0
 13 24  1  0
 16 28  4  0
 17 21  1  0
 18 31  4  0
 19 32  1  0
 22 27  4  0
 22 29  4  0
 25 32  4  0
 30 33  1  0
M  END
$$$$

 Created by Python create_sdf_string function

 34 82  0  0  0  0  0  0  0  0999 V2000
   10.8842   -2.9081   22.1083 O   0  0  0  0  0  0  0  0  0  0  0  0
    7.4320   -6.5176   16.2825 C   0  0  0  0  0  0  0  0  0  0  0  0
   11.0594   -5.3448   22.6160 O   0  0  0  0  0  0  0  0  0  0  0  0
    2.8569  -10.4350   16.6063 C   0  0  0  0  0  0  0  0  0  0  0  0
    6.7617   -7.4117   17.2601 Cl  0  0  0  0  0  0  0  0  0  0  0  0
   10.3762   -5.8105   19.1624 C   0  0  0  0  0  0  0  0  0  0  0  0
    1.5511  -12.2638   20.5198 C   0  0  0  0  0  0  0  0  0  0  0  0
    9.9980   -4.6890   17.7267 C   0  0  0  0  0  0  0  0  0  0  0  0
    5.7716   -7.2141   16.6235 C   0  0  0  0  0  0  0  0  0  0  0  0
    9.1367   -8.0392   17.3679 C   0  0  0  0  0  0  0  0  0  0  0  0
    4.1777   -8.9507   16.9664 C   0  0  0  0  0  0  0  0  0  0  0  0
   10.8968   -4.5934   21.2729 C   0  0  0  0  0  0  0  0  0  0  0  0
    1.7085  -11.9036   21.7086 C   0  0  0  0  0  0  0  0  0  0  0  0
   -0.5987  -11.2433   21.4545 C   0  0  0  0  0  0  0  0  0  0  0  0
    1.2821  -10.2224   17.2578 C   0  0  0  0  0  0  0  0  0  0  0  0
    9.4167   -4.4587   15.8378 O   0  0  0  0  0  0  0  0  0  0  0  0
   11.1889   -3.8547   19.7420 C   0  0  0  0  0  0  0  0  0  0  0  0
    0.3465  -11.7702   22.6049 C   0  0  0  0  0  0  0  0  0  0  0  0
    5.8401   -7.9891   17.4484 P   0  0  0  0  0  0  0  0  0  0  0  0
   -0.4746  -11.3769   20.9686 C   0  0  0  0  0  0  0  0  0  0  0  0
    3.2823   -8.1835   18.1394 C   0  0  0  0  0  0  0  0  0  0  0  0
   10.3295   -4.5232   20.2637 C   0  0  0  0  0  0  0  0  0  0  0  0
    2.4793  -11.4638   18.5277 N   0  0  0  0  0  0  0  0  0  0  0  0
    7.2947   -5.8138   15.3335 C   0  0  0  0  0  0  0  0  0  0  0  0
    0.9484  -11.9914   21.9246 He  0  0  0  0  0  0  0  0  0  0  0  0
    7.4266   -6.9526   14.9561 He  0  0  0  0  0  0  0  0  0  0  0  0
   10.3151   -3.5004   17.7704 He  0  0  0  0  0  0  0  0  0  0  0  0
    9.3456   -5.3862   15.7820 He  0  0  0  0  0  0  0  0  0  0  0  0
    1.0320   -8.2421   16.4746 He  0  0  0  0  0  0  0  0  0  0  0  0
    9.8725   -6.3111   18.6707 He  0  0  0  0  0  0  0  0  0  0  0  0
    5.1254   -8.7474   19.6376 He  0  0  0  0  0  0  0  0  0  0  0  0
    8.3748   -5.4205   18.6831 He  0  0  0  0  0  0  0  0  0  0  0  0
    3.5457   -7.9630   15.4882 He  0  0  0  0  0  0  0  0  0  0  0  0
    2.0668  -11.3180   18.8922 He  0  0  0  0  0  0  0  0  0  0  0  0
  1  4  2  0
  1  7  1  0
  1 11  2  0
  1 12  2  0
  1 21  3  0
  2  3  1  0
  2  4  4  0
  2  5  4  0
  2  8  2  0
  2 11  3  0
  2 18  4  0
  2 24  2  0
  3  5  3  0
  3  8  1  0
  3  9  2  0
  3 12  1  0
  3 19  4  0
  3 21  1  0
  3 23  3  0
  4  6  3  0
  4  8  2  0
  4 12  1  0
  4 15  2  0
  4 16  2  0
  4 24  1  0
  5 10  4  0
  5 11  3  0
  5 12  1  0
  5 13  4  0
  5 15  4  0
  5 17  1  0
  5 18  1  0
  5 19  1  0
  5 20  3  0
  5 23  3  0
  5 24  4  0
  6  9  2  0
  6 11  3  0
  6 12  1  0
  6 19  4  0
  6 22  4  0
  6 24  4  0
  7  9  1  0
  7 16  1  0
  7 24  1  0
  8  9  4  0
  8 12  4  0
  8 14  4  0
  8 16  1  0
  8 19  1  0
  8 21  2  0
  8 22  4  0
  9 11  3  0
  9 19  4  0
  9 20  1  0
  9 21  3  0
  9 23  4  0
 10 19  1  0
 10 21  4  0
 11 16  4  0
 11 19  1  0
 11 21  4  0
 11 24  4  0
 12 16  4  0
 12 22  1  0
 13 16  4  0
 13 21  4  0
 13 22  1  0
 14 18  4  0
 14 20  4  0
 14 22  2  0
 15 19  3  0
 16 19  2  0
 17 18  2  0
 17 19  4  0
 18 24  1  0
 19 21  2  0
 19 23  2  0
 19 24  2  0
 21 22  1  0
 21 23  2  0
 22 23  2  0
M  END
$$$$

 Created by Python create_sdf_string function

 34 33  0  0  0  0  0  0  0  0999 V2000
   10.9365   -3.1512   22.0846 O   0  0  0  0  0  0  0  0  0  0  0  0
    7.7364   -6.2895   16.2551 C   0  0  0  0  0  0  0  0  0  0  0  0
   11.0225   -5.2705   22.4039 O   0  0  0  0  0  0  0  0  0  0  0  0
    2.5768   -9.9538   17.4629 C   0  0  0  0  0  0  0  0  0  0  0  0
    1.2435  -12.1414   22.5879 C   0  0  0  0  0  0  0  0  0  0  0  0
    6.7347   -7.1286   15.5346 C   0  0  0  0  0  0  0  0  0  0  0  0
   10.6177   -3.5781   18.0224 C   0  0  0  0  0  0  0  0  0  0  0  0
    7.2292   -7.7614   17.2931 C   0  0  0  0  0  0  0  0  0  0  0  0
    8.9324   -5.1013   16.2088 C   0  0  0  0  0  0  0  0  0  0  0  0
   10.2339   -5.8331   19.7377 C   0  0  0  0  0  0  0  0  0  0  0  0
    1.2101  -11.7636   20.4116 C   0  0  0  0  0  0  0  0  0  0  0  0
    1.8421   -8.9912   16.2030 C   0  0  0  0  0  0  0  0  0  0  0  0
    9.9198   -4.7603   17.6190 C   0  0  0  0  0  0  0  0  0  0  0  0
    9.7213   -5.9648   18.4593 C   0  0  0  0  0  0  0  0  0  0  0  0
    5.6156   -7.7604   16.3047 C   0  0  0  0  0  0  0  0  0  0  0  0
    5.4025   -9.0776   18.4239 N   0  0  0  0  0  0  0  0  0  0  0  0
    8.8173   -8.0724   17.5906 C   0  0  0  0  0  0  0  0  0  0  0  0
    4.1850   -8.8693   17.1743 C   0  0  0  0  0  0  0  0  0  0  0  0
   10.9103   -4.3157   21.6233 C   0  0  0  0  0  0  0  0  0  0  0  0
    1.8950  -12.1884   21.4706 C   0  0  0  0  0  0  0  0  0  0  0  0
    8.8212   -6.7429   17.5774 C   0  0  0  0  0  0  0  0  0  0  0  0
   -0.7191  -11.3444   21.7081 C   0  0  0  0  0  0  0  0  0  0  0  0
    1.3305  -10.0742   17.0245 C   0  0  0  0  0  0  0  0  0  0  0  0
    9.4053   -4.3770   15.9300 O   0  0  0  0  0  0  0  0  0  0  0  0
   10.9488   -3.4601   19.3533 C   0  0  0  0  0  0  0  0  0  0  0  0
    3.1630   -8.4553   16.2207 C   0  0  0  0  0  0  0  0  0  0  0  0
    0.0326  -11.7034   22.7622 C   0  0  0  0  0  0  0  0  0  0  0  0
    5.9373   -8.1753   17.2753 C   0  0  0  0  0  0  0  0  0  0  0  0
   -0.1878  -11.3116   20.4969 C   0  0  0  0  0  0  0  0  0  0  0  0
    1.9119  -11.8876   19.0241 C   0  0  0  0  0  0  0  0  0  0  0  0
    4.0443   -9.1911   17.4144 C   0  0  0  0  0  0  0  0  0  0  0  0
   10.7162   -4.5556   20.2068 C   0  0  0  0  0  0  0  0  0  0  0  0
    2.5510  -11.0535   18.6128 N   0  0  0  0  0  0  0  0  0  0  0  0
    7.1709   -5.9695   15.2697 C   0  0  0  0  0  0  0  0  0  0  0  0
  1 19  2  0
  2  9  4  0
  2 34  4  0
  3 19  1  0
  4 23  4  0
  4 33  1  0
  5 20  4  0
  5 27  4  0
  6 15  4  0
  6 34  4  0
  7 13  4  0
  7 25  4  0
  8 17  4  0
  8 28  4  0
  9 24  2  0
 10 14  4  0
 10 32  4  0
 11 20  4  0
 11 29  4  0
 11 30  1  0
 12 23  4  0
 12 26  4  0
 13 14  4  0
 13 24  1  0
 14 21  1  0
 15 28  4  0
 17 21  4  0
 18 31  4  0
 19 32  1  0
 22 27  4  0
 22 29  4  0
 25 32  4  0
 30 33  1  0
M  END
$$$$

 Created by Python create_sdf_string function

 34 90  0  0  0  0  0  0  0  0999 V2000
    8.1320   -6.3990   15.3597 C   0  0  0  0  0  0  0  0  0  0  0  0
   11.0243   -5.4995   22.6610 O   0  0  0  0  0  0  0  0  0  0  0  0
    2.6545  -10.5478   17.1596 C   0  0  0  0  0  0  0  0  0  0  0  0
    1.9254  -12.4386   23.0280 C   0  0  0  0  0  0  0  0  0  0  0  0
    6.2710   -7.3204   16.6326 F   0  0  0  0  0  0  0  0  0  0  0  0
   10.8545   -3.7892   17.8455 C   0  0  0  0  0  0  0  0  0  0  0  0
    9.5156   -4.8506   15.4528 F   0  0  0  0  0  0  0  0  0  0  0  0
    9.6089   -6.1726   20.0537 C   0  0  0  0  0  0  0  0  0  0  0  0
    0.9717  -11.9154   20.5427 C   0  0  0  0  0  0  0  0  0  0  0  0
    3.1361   -9.1747   15.5514 C   0  0  0  0  0  0  0  0  0  0  0  0
    9.7357   -4.6700   18.0221 C   0  0  0  0  0  0  0  0  0  0  0  0
    9.3184   -5.2190   18.5958 Cl  0  0  0  0  0  0  0  0  0  0  0  0
    3.9381   -6.1639   16.6612 F   0  0  0  0  0  0  0  0  0  0  0  0
    8.6059   -7.7981   17.4340 C   0  0  0  0  0  0  0  0  0  0  0  0
   10.8873   -4.1511   21.8424 C   0  0  0  0  0  0  0  0  0  0  0  0
    8.7973   -8.2770   16.1139 C   0  0  0  0  0  0  0  0  0  0  0  0
   -0.6674  -11.6944   21.6102 N   0  0  0  0  0  0  0  0  0  0  0  0
    1.0786  -10.0267   17.1954 C   0  0  0  0  0  0  0  0  0  0  0  0
    9.8398   -3.9724   15.8580 O   0  0  0  0  0  0  0  0  0  0  0  0
   11.5172   -2.8555   19.1111 C   0  0  0  0  0  0  0  0  0  0  0  0
    2.7163   -8.7948   15.7242 C   0  0  0  0  0  0  0  0  0  0  0  0
    4.4971   -8.8011   16.1914 C   0  0  0  0  0  0  0  0  0  0  0  0
   -0.4092  -11.4471   20.8465 C   0  0  0  0  0  0  0  0  0  0  0  0
    1.9419  -11.6245   18.9506 C   0  0  0  0  0  0  0  0  0  0  0  0
    2.4991  -11.3483   18.6265 N   0  0  0  0  0  0  0  0  0  0  0  0
    7.2078   -6.0392   15.3873 C   0  0  0  0  0  0  0  0  0  0  0  0
   10.7516   -3.6893   21.4870 He  0  0  0  0  0  0  0  0  0  0  0  0
    6.7911   -8.6591   16.3887 He  0  0  0  0  0  0  0  0  0  0  0  0
    5.8065   -8.3320   19.3841 He  0  0  0  0  0  0  0  0  0  0  0  0
    3.7315  -10.9342   17.0087 He  0  0  0  0  0  0  0  0  0  0  0  0
    1.8002  -12.6364   21.4449 He  0  0  0  0  0  0  0  0  0  0  0  0
    0.1454  -12.0802   22.4610 He  0  0  0  0  0  0  0  0  0  0  0  0
    4.3065   -9.4918   17.6720 He  0  0  0  0  0  0  0  0  0  0  0  0
   10.5214   -4.8896   19.8264 He  0  0  0  0  0  0  0  0  0  0  0  0
  1  7  2  0
  1  8  3  0
  1 11  4  0
  1 15  3  0
  1 22  1  0
  1 26  4  0
  2  5  3  0
  2 13  1  0
  2 14  4  0
  2 15  1  0
  2 19  2  0
  3  6  2  0
  3 10  4  0
  3 13  3  0
  3 18  3  0
  3 22  4  0
  3 24  1  0
  3 25  1  0
  4  5  4  0
  4  8  4  0
  4  9  1  0
  4 19  4  0
  4 22  3  0
  5 11  3  0
  5 12  2  0
  5 15  4  0
  5 17  2  0
  5 18  3  0
  5 19  2  0
  5 20  2  0
  5 21  1  0
  6  8  4  0
  6 11  4  0
  6 17  1  0
  6 18  3  0
  6 20  4  0
  6 23  3  0
  7 10  3  0
  7 11  2  0
  7 13  3  0
  7 19  1  0
  7 20  1  0
  7 22  3  0
  7 24  3  0
  8 10  1  0
  8 12  4  0
  8 13  4  0
  8 17  2  0
  8 21  3  0
  8 22  1  0
  8 24  2  0
  9 13  2  0
  9 20  2  0
  9 23  1  0
  9 24  1  0
 10 11  2  0
 10 14  1  0
 10 19  1  0
 10 20  1  0
 10 22  1  0
 10 24  1  0
 10 25  4  0
 11 12  4  0
 11 13  3  0
 11 17  4  0
 11 19  1  0
 11 21  1  0
 12 16  3  0
 12 18  4  0
 12 20  1  0
 12 25  4  0
 13 19  2  0
 13 22  2  0
 14 15  4  0
 14 16  4  0
 14 21  3  0
 14 24  2  0
 15 16  3  0
 15 21  2  0
 16 18  4  0
 16 26  2  0
 17 20  2  0
 17 22  4  0
 18 21  4  0
 19 21  2  0
 19 22  1  0
 19 26  3  0
 20 26  4  0
 22 24  3  0
 23 24  3  0
M  END
$$$$

 Created by Python create_sdf_string function

 34 33  0  0  0  0  0  0  0  0999 V2000
   10.8627   -3.1627   22.1718 O   0  0  0  0  0  0  0  0  0  0  0  0
    8.2477   -6.2001   15.7282 C   0  0  0  0  0  0  0  0  0  0  0  0
   11.0216   -5.3479   22.3152 O   0  0  0  0  0  0  0  0  0  0  0  0
    2.6436  -10.3954   17.7571 C   0  0  0  0  0  0  0  0  0  0  0  0
    1.3197  -12.4648   22.6953 C   0  0  0  0  0  0  0  0  0  0  0  0
    6.4236   -7.7527   16.6742 C   0  0  0  0  0  0  0  0  0  0  0  0
   10.7158   -3.5261   18.0270 C   0  0  0  0  0  0  0  0  0  0  0  0
    6.7015   -7.9804   16.9247 C   0  0  0  0  0  0  0  0  0  0  0  0
    9.1005   -4.9004   15.6513 C   0  0  0  0  0  0  0  0  0  0  0  0
   10.0733   -5.5792   19.7092 C   0  0  0  0  0  0  0  0  0  0  0  0
    1.1143  -11.8731   20.4555 C   0  0  0  0  0  0  0  0  0  0  0  0
    3.0661   -8.8347   16.1645 C   0  0  0  0  0  0  0  0  0  0  0  0
   10.0704   -4.4457   17.5446 C   0  0  0  0  0  0  0  0  0  0  0  0
    9.6779   -5.5053   18.4643 C   0  0  0  0  0  0  0  0  0  0  0  0
    4.4039   -7.2760   15.9518 O   0  0  0  0  0  0  0  0  0  0  0  0
    5.9955   -8.7459   18.1470 O   0  0  0  0  0  0  0  0  0  0  0  0
    8.4095   -8.2150   16.9567 C   0  0  0  0  0  0  0  0  0  0  0  0
    3.7497  -10.0824   17.7561 C   0  0  0  0  0  0  0  0  0  0  0  0
   10.8953   -4.3645   21.5763 C   0  0  0  0  0  0  0  0  0  0  0  0
    1.8584  -12.3532   21.4161 C   0  0  0  0  0  0  0  0  0  0  0  0
    8.7308   -7.8163   16.0824 C   0  0  0  0  0  0  0  0  0  0  0  0
   -0.6868  -11.5935   21.8799 C   0  0  0  0  0  0  0  0  0  0  0  0
    1.3866   -9.9854   17.0112 C   0  0  0  0  0  0  0  0  0  0  0  0
    9.6823   -4.1861   16.1161 O   0  0  0  0  0  0  0  0  0  0  0  0
   11.0456   -3.4352   19.3574 C   0  0  0  0  0  0  0  0  0  0  0  0
    2.1575   -9.1556   16.2045 C   0  0  0  0  0  0  0  0  0  0  0  0
    0.0782  -12.0721   22.8375 C   0  0  0  0  0  0  0  0  0  0  0  0
    4.3292   -8.5303   16.5667 C   0  0  0  0  0  0  0  0  0  0  0  0
   -0.2020  -11.4805   20.6318 C   0  0  0  0  0  0  0  0  0  0  0  0
    1.6536  -11.7486   19.1320 C   0  0  0  0  0  0  0  0  0  0  0  0
    4.6545   -9.4627   17.6182 C   0  0  0  0  0  0  0  0  0  0  0  0
   10.6632   -4.4582   20.1323 C   0  0  0  0  0  0  0  0  0  0  0  0
    2.3375  -11.3565   18.6895 N   0  0  0  0  0  0  0  0  0  0  0  0
    7.1121   -6.4446   15.6615 C   0  0  0  0  0  0  0  0  0  0  0  0
  1 19  2  0
  2  9  1  0
  2 21  4  0
  2 34  4  0
  3 19  1  0
  4 18  4  0
  4 23  4  0
  4 33  1  0
  5 20  4  0
  5 27  4  0
  6  8  4  0
  6 34  4  0
  7 13  4  0
  7 25  4  0
  9 24  1  0
 10 14  4  0
 10 32  4  0
 11 20  4  0
 11 29  4  0
 11 30  1  0
 12 26  4  0
 12 28  4  0
 13 14  4  0
 13 24  1  0
 17 21  4  0
 18 31  4  0
 19 32  1  0
 22 27  4  0
 22 29  4  0
 23 26  4  0
 25 32  4  0
 28 31  4  0
 30 33  1  0
M  END
$$$$

 Created by Python create_sdf_string function

 34 72  0  0  0  0  0  0  0  0999 V2000
   10.9077   -3.0922   21.7862 O   0  0  0  0  0  0  0  0  0  0  0  0
    8.8127   -6.1946   15.9306 C   0  0  0  0  0  0  0  0  0  0  0  0
    3.4576  -10.0166   17.2283 C   0  0  0  0  0  0  0  0  0  0  0  0
    1.3486  -12.0430   22.9411 C   0  0  0  0  0  0  0  0  0  0  0  0
    6.8261   -6.0903   16.8537 S   0  0  0  0  0  0  0  0  0  0  0  0
   11.2119   -3.7516   18.4712 C   0  0  0  0  0  0  0  0  0  0  0  0
    8.9336   -5.7724   14.4031 N   0  0  0  0  0  0  0  0  0  0  0  0
    9.7524   -5.0841   19.6549 C   0  0  0  0  0  0  0  0  0  0  0  0
    1.2895  -12.2728   20.8773 C   0  0  0  0  0  0  0  0  0  0  0  0
    9.9413   -4.3363   18.1968 O   0  0  0  0  0  0  0  0  0  0  0  0
   10.2669   -5.4789   18.5134 C   0  0  0  0  0  0  0  0  0  0  0  0
    4.3892   -6.7185   16.3722 P   0  0  0  0  0  0  0  0  0  0  0  0
    6.7047   -7.5880   17.5319 N   0  0  0  0  0  0  0  0  0  0  0  0
    4.6210   -9.5657   17.6635 Cl  0  0  0  0  0  0  0  0  0  0  0  0
   10.5474   -4.3110   20.9610 F   0  0  0  0  0  0  0  0  0  0  0  0
    1.2130  -12.3935   21.3717 C   0  0  0  0  0  0  0  0  0  0  0  0
    1.1917   -9.8373   16.9878 C   0  0  0  0  0  0  0  0  0  0  0  0
    9.3197   -4.1514   15.1990 C   0  0  0  0  0  0  0  0  0  0  0  0
   10.8688   -3.3824   18.9817 C   0  0  0  0  0  0  0  0  0  0  0  0
    1.6849   -7.1408   14.3976 O   0  0  0  0  0  0  0  0  0  0  0  0
    0.5186  -11.8571   23.2970 C   0  0  0  0  0  0  0  0  0  0  0  0
   -0.3377  -11.4400   20.3720 C   0  0  0  0  0  0  0  0  0  0  0  0
    1.8034  -11.7599   18.9943 C   0  0  0  0  0  0  0  0  0  0  0  0
   10.0460   -4.4112   20.2968 C   0  0  0  0  0  0  0  0  0  0  0  0
    1.7052  -11.5642   18.9891 N   0  0  0  0  0  0  0  0  0  0  0  0
    7.1105   -6.5206   15.4236 C   0  0  0  0  0  0  0  0  0  0  0  0
   11.3560   -5.4579   22.3110 He  0  0  0  0  0  0  0  0  0  0  0  0
    8.1636   -6.5960   17.0193 He  0  0  0  0  0  0  0  0  0  0  0  0
    2.9552   -9.5225   14.8951 He  0  0  0  0  0  0  0  0  0  0  0  0
    8.4197   -7.7980   16.6893 He  0  0  0  0  0  0  0  0  0  0  0  0
    6.7489   -8.2138   16.8417 He  0  0  0  0  0  0  0  0  0  0  0  0
   -0.4339  -11.8477   22.0251 He  0  0  0  0  0  0  0  0  0  0  0  0
    4.1168   -8.0290   15.9437 He  0  0  0  0  0  0  0  0  0  0  0  0
    4.8855   -9.8212   16.9662 He  0  0  0  0  0  0  0  0  0  0  0  0
  1  7  4  0
  1 13  1  0
  1 15  2  0
  1 17  3  0
  1 23  4  0
  1 25  1  0
  2  5  4  0
  2 13  1  0
  2 26  4  0
  3 13  1  0
  3 14  4  0
  3 20  1  0
  3 24  3  0
  3 25  1  0
  4 12  1  0
  4 16  4  0
  4 19  3  0
  4 20  2  0
  4 21  4  0
  4 22  4  0
  5 14  4  0
  5 18  3  0
  5 24  3  0
  5 26  2  0
  6 10  4  0
  6 13  4  0
  6 14  1  0
  6 18  1  0
  6 19  4  0
  7 13  2  0
  7 15  4  0
  7 16  2  0
  7 18  2  0
  7 19  1  0
  7 25  4  0
  8 11  4  0
  8 13  3  0
  8 17  3  0
  8 20  2  0
  8 24  4  0
  9 12  4  0
  9 16  4  0
  9 17  3  0
  9 19  4  0
  9 20  2  0
  9 22  4  0
  9 23  1  0
 10 11  4  0
 10 15  1  0
 12 19  1  0
 12 20  3  0
 12 22  3  0
 12 23  2  0
 12 25  4  0
 13 14  2  0
 13 16  4  0
 13 20  3  0
 13 23  1  0
 13 24  1  0
 13 25  2  0
 14 15  4  0
 14 16  4  0
 14 19  1  0
 14 20  1  0
 14 21  2  0
 18 22  1  0
 19 22  3  0
 19 23  4  0
 19 24  4  0
 19 25  1  0
 20 23  2  0
 23 25  1  0
M  END
$$$$

 Created by Python create_sdf_string function

 34 33  0  0  0  0  0  0  0  0999 V2000
   10.8713   -2.9988   22.0000 O   0  0  0  0  0  0  0  0  0  0  0  0
    8.5117   -5.9244   16.0065 C   0  0  0  0  0  0  0  0  0  0  0  0
   10.9089   -5.1667   22.3363 O   0  0  0  0  0  0  0  0  0  0  0  0
    2.7639  -10.2297   17.6493 C   0  0  0  0  0  0  0  0  0  0  0  0
    1.3319  -12.3679   22.8286 C   0  0  0  0  0  0  0  0  0  0  0  0
    6.7699   -6.9831   16.6229 C   0  0  0  0  0  0  0  0  0  0  0  0
   10.7647   -3.4653   17.9244 C   0  0  0  0  0  0  0  0  0  0  0  0
    8.7137   -6.6661   17.2038 C   0  0  0  0  0  0  0  0  0  0  0  0
    9.1308   -4.8659   15.9585 N   0  0  0  0  0  0  0  0  0  0  0  0
    9.9910   -5.4496   19.6697 C   0  0  0  0  0  0  0  0  0  0  0  0
    1.0720  -11.9189   20.5848 C   0  0  0  0  0  0  0  0  0  0  0  0
    2.6661   -8.8918   15.9718 C   0  0  0  0  0  0  0  0  0  0  0  0
   10.0310   -4.6030   17.4910 C   0  0  0  0  0  0  0  0  0  0  0  0
    9.6573   -5.5625   18.2742 C   0  0  0  0  0  0  0  0  0  0  0  0
    4.4717   -7.6874   15.9791 C   0  0  0  0  0  0  0  0  0  0  0  0
    6.5858   -7.9428   17.1964 C   0  0  0  0  0  0  0  0  0  0  0  0
    8.5330   -7.9169   17.0534 C   0  0  0  0  0  0  0  0  0  0  0  0
    4.3154   -9.9000   17.7114 N   0  0  0  0  0  0  0  0  0  0  0  0
   10.7566   -4.1522   21.5142 C   0  0  0  0  0  0  0  0  0  0  0  0
    1.8527  -12.3500   21.6168 C   0  0  0  0  0  0  0  0  0  0  0  0
    6.4466   -8.5129   17.2339 C   0  0  0  0  0  0  0  0  0  0  0  0
   -0.6440  -11.5648   22.0733 C   0  0  0  0  0  0  0  0  0  0  0  0
    1.7994   -9.9086   16.9129 C   0  0  0  0  0  0  0  0  0  0  0  0
    9.5971   -3.9646   15.6011 C   0  0  0  0  0  0  0  0  0  0  0  0
   10.9730   -3.2722   19.2739 C   0  0  0  0  0  0  0  0  0  0  0  0
    2.3646   -8.0915   15.1728 C   0  0  0  0  0  0  0  0  0  0  0  0
    0.1565  -11.8982   23.0811 C   0  0  0  0  0  0  0  0  0  0  0  0
    4.0520   -8.4005   16.3196 C   0  0  0  0  0  0  0  0  0  0  0  0
   -0.2681  -11.5689   20.7708 C   0  0  0  0  0  0  0  0  0  0  0  0
    1.6862  -11.8786   19.1290 C   0  0  0  0  0  0  0  0  0  0  0  0
    4.4731   -9.3560   17.2698 C   0  0  0  0  0  0  0  0  0  0  0  0
   10.5585   -4.2866   20.1359 C   0  0  0  0  0  0  0  0  0  0  0  0
    2.1176  -11.0141   18.6379 N   0  0  0  0  0  0  0  0  0  0  0  0
    7.2118   -6.3247   15.4522 C   0  0  0  0  0  0  0  0  0  0  0  0
  1 19  2  0
  2  8  4  0
  2  9  4  0
  2 34  4  0
  3 19  1  0
  4 18  4  0
  4 23  4  0
  4 33  1  0
  5 20  4  0
  5 27  4  0
  6 16  4  0
  6 34  4  0
  7 13  4  0
  7 25  4  0
  8 14  4  0
  8 17  4  0
  9 24  1  0
 10 14  4  0
 10 32  4  0
 11 20  4  0
 11 29  4  0
 11 30  1  0
 12 23  4  0
 12 26  4  0
 13 14  4  0
 15 28  4  0
 18 31  4  0
 19 32  1  0
 22 27  4  0
 22 29  4  0
 25 32  4  0
 28 31  4  0
 30 33  1  0
M  END
$$$$

 Created by Python create_sdf_string function

 34 55  0  0  0  0  0  0  0  0999 V2000
   10.9452   -2.8338   21.7759 O   0  0  0  0  0  0  0  0  0  0  0  0
    8.7220   -6.0214   16.0345 C   0  0  0  0  0  0  0  0  0  0  0  0
   11.3064   -5.3200   22.3121 O   0  0  0  0  0  0  0  0  0  0  0  0
   10.6782   -2.8769   18.5593 C   0  0  0  0  0  0  0  0  0  0  0  0
    8.2752   -5.8198   15.1009 C   0  0  0  0  0  0  0  0  0  0  0  0
   10.1243   -5.1377   19.8755 C   0  0  0  0  0  0  0  0  0  0  0  0
    0.8502  -11.6817   21.0766 C   0  0  0  0  0  0  0  0  0  0  0  0
    9.5560   -4.4955   17.3684 Cl  0  0  0  0  0  0  0  0  0  0  0  0
    3.4899   -6.4980   16.4043 C   0  0  0  0  0  0  0  0  0  0  0  0
    7.3431   -7.1351   16.9837 N   0  0  0  0  0  0  0  0  0  0  0  0
    8.0400   -7.9741   17.1542 C   0  0  0  0  0  0  0  0  0  0  0  0
   11.1371   -4.5327   21.5912 C   0  0  0  0  0  0  0  0  0  0  0  0
    7.1368   -8.1976   17.6819 C   0  0  0  0  0  0  0  0  0  0  0  0
   -0.6420  -11.6409   21.9137 C   0  0  0  0  0  0  0  0  0  0  0  0
    2.0755  -10.2357   17.3727 C   0  0  0  0  0  0  0  0  0  0  0  0
    9.5017   -3.8677   15.3913 C   0  0  0  0  0  0  0  0  0  0  0  0
   11.1957   -3.4040   19.0968 C   0  0  0  0  0  0  0  0  0  0  0  0
    2.3823   -7.8992   16.1705 N   0  0  0  0  0  0  0  0  0  0  0  0
   -0.0101  -12.3875   23.1102 C   0  0  0  0  0  0  0  0  0  0  0  0
    3.6490   -7.5805   15.2832 P   0  0  0  0  0  0  0  0  0  0  0  0
   -0.3188  -11.4671   20.5525 C   0  0  0  0  0  0  0  0  0  0  0  0
   10.4316   -4.4796   20.2725 C   0  0  0  0  0  0  0  0  0  0  0  0
    7.4543   -6.0572   15.2249 P   0  0  0  0  0  0  0  0  0  0  0  0
    2.6312  -12.1840   18.3901 He  0  0  0  0  0  0  0  0  0  0  0  0
    1.2679  -12.1223   22.1014 He  0  0  0  0  0  0  0  0  0  0  0  0
    5.1686   -6.5261   17.6784 He  0  0  0  0  0  0  0  0  0  0  0  0
    9.2309   -6.3678   16.5091 He  0  0  0  0  0  0  0  0  0  0  0  0
    2.7454   -9.0973   16.5572 He  0  0  0  0  0  0  0  0  0  0  0  0
    9.0752   -5.7282   18.5952 He  0  0  0  0  0  0  0  0  0  0  0  0
    3.7091   -9.1993   18.0834 He  0  0  0  0  0  0  0  0  0  0  0  0
    1.8576  -12.8638   21.2932 He  0  0  0  0  0  0  0  0  0  0  0  0
    1.8735  -12.0154   18.9930 He  0  0  0  0  0  0  0  0  0  0  0  0
    4.0315  -10.0617   16.5034 He  0  0  0  0  0  0  0  0  0  0  0  0
    2.5411  -11.0975   18.3871 He  0  0  0  0  0  0  0  0  0  0  0  0
  1  4  4  0
  1  9  2  0
  1 12  2  0
  1 18  3  0
  1 20  2  0
  1 21  3  0
  2  4  1  0
  2  5  4  0
  2  8  2  0
  2 13  3  0
  2 23  4  0
  3  5  4  0
  3 12  1  0
  4  5  1  0
  4 17  4  0
  4 23  1  0
  5 12  3  0
  5 14  2  0
  5 16  1  0
  5 21  1  0
  6 10  1  0
  6 12  3  0
  6 22  4  0
  7  8  4  0
  7  9  2  0
  7 12  2  0
  8 10  1  0
  8 15  1  0
  9 11  3  0
  9 12  4  0
  9 14  4  0
  9 19  4  0
  9 22  3  0
 10 12  3  0
 10 15  3  0
 10 20  1  0
 11 13  1  0
 12 22  1  0
 13 14  3  0
 13 18  2  0
 13 21  1  0
 14 16  2  0
 14 17  2  0
 14 19  4  0
 14 21  3  0
 15 21  2  0
 16 20  1  0
 17 18  2  0
 17 20  3  0
 17 22  4  0
 17 23  3  0
 18 19  2  0
 18 22  3  0
 18 23  2  0
 20 21  2  0
M  END
$$$$

 Created by Python create_sdf_string function

 34 30  0  0  0  0  0  0  0  0999 V2000
   11.1644   -3.0863   22.0416 O   0  0  0  0  0  0  0  0  0  0  0  0
    8.2923   -5.8702   16.1733 C   0  0  0  0  0  0  0  0  0  0  0  0
   11.1115   -5.1939   22.2968 O   0  0  0  0  0  0  0  0  0  0  0  0
    2.7125  -11.9268   18.6932 O   0  0  0  0  0  0  0  0  0  0  0  0
    1.2700  -12.5691   22.5597 C   0  0  0  0  0  0  0  0  0  0  0  0
    5.5081   -7.7894   17.2708 C   0  0  0  0  0  0  0  0  0  0  0  0
   10.6386   -3.3590   17.8951 C   0  0  0  0  0  0  0  0  0  0  0  0
    8.7714   -6.3531   17.2739 C   0  0  0  0  0  0  0  0  0  0  0  0
    8.5036   -5.0293   15.7477 C   0  0  0  0  0  0  0  0  0  0  0  0
   10.0390   -5.5054   19.5714 C   0  0  0  0  0  0  0  0  0  0  0  0
    1.0602  -11.9069   20.4631 C   0  0  0  0  0  0  0  0  0  0  0  0
    2.6664   -9.3240   16.8204 C   0  0  0  0  0  0  0  0  0  0  0  0
    9.8907   -4.4277   17.4253 C   0  0  0  0  0  0  0  0  0  0  0  0
    9.5947   -5.4238   18.2456 C   0  0  0  0  0  0  0  0  0  0  0  0
    3.7027   -7.5441   16.1208 C   0  0  0  0  0  0  0  0  0  0  0  0
    6.9735   -7.2898   16.9623 N   0  0  0  0  0  0  0  0  0  0  0  0
    8.1704   -8.1371   17.2845 C   0  0  0  0  0  0  0  0  0  0  0  0
    4.2219   -9.5431   17.5353 C   0  0  0  0  0  0  0  0  0  0  0  0
   10.9996   -4.2366   21.5530 C   0  0  0  0  0  0  0  0  0  0  0  0
    1.8062  -12.4074   21.3560 C   0  0  0  0  0  0  0  0  0  0  0  0
    6.9662   -8.0298   17.4633 C   0  0  0  0  0  0  0  0  0  0  0  0
   -0.7757  -11.6225   21.9770 C   0  0  0  0  0  0  0  0  0  0  0  0
    2.0828  -10.2997   17.4009 C   0  0  0  0  0  0  0  0  0  0  0  0
    9.5687   -4.0025   15.9250 C   0  0  0  0  0  0  0  0  0  0  0  0
   10.9811   -3.2668   19.2395 C   0  0  0  0  0  0  0  0  0  0  0  0
    2.5665   -8.4997   16.2664 C   0  0  0  0  0  0  0  0  0  0  0  0
    0.0300  -12.1594   22.8581 C   0  0  0  0  0  0  0  0  0  0  0  0
    4.1971   -7.8557   16.2474 C   0  0  0  0  0  0  0  0  0  0  0  0
   -0.2821  -11.4659   20.7152 C   0  0  0  0  0  0  0  0  0  0  0  0
    1.6804  -11.8950   19.0948 C   0  0  0  0  0  0  0  0  0  0  0  0
    4.1331   -9.4211   17.3641 C   0  0  0  0  0  0  0  0  0  0  0  0
   10.6782   -4.3425   20.1372 C   0  0  0  0  0  0  0  0  0  0  0  0
    2.3113  -11.0586   18.5369 C   0  0  0  0  0  0  0  0  0  0  0  0
    6.9765   -6.2449   15.2209 O   0  0  0  0  0  0  0  0  0  0  0  0
  1 19  2  0
  2  8  4  0
  2  9  4  0
  2 34  4  0
  3 19  1  0
  4 30  2  0
  5 20  4  0
  5 27  4  0
  7 13  4  0
  7 25  4  0
  8 14  4  0
  9 24  4  0
 10 14  4  0
 10 32  4  0
 11 20  4  0
 11 29  4  0
 11 30  1  0
 12 23  4  0
 12 26  4  0
 13 14  4  0
 13 24  1  0
 15 28  4  0
 17 21  1  0
 18 31  4  0
 19 32  1  0
 22 27  4  0
 22 29  4  0
 23 33  1  0
 25 32  4  0
 30 33  1  0
M  END
$$$$

 Created by Python create_sdf_string function

 34 80  0  0  0  0  0  0  0  0999 V2000
   11.1463   -3.1323   22.0165 O   0  0  0  0  0  0  0  0  0  0  0  0
    8.3641   -5.8748   16.2022 C   0  0  0  0  0  0  0  0  0  0  0  0
    2.4667  -12.0770   17.9953 S   0  0  0  0  0  0  0  0  0  0  0  0
    1.0607  -12.4631   22.1540 C   0  0  0  0  0  0  0  0  0  0  0  0
    5.3121   -8.3776   16.6053 O   0  0  0  0  0  0  0  0  0  0  0  0
   10.5911   -3.1492   18.1808 C   0  0  0  0  0  0  0  0  0  0  0  0
    8.8261   -6.1143   16.2848 N   0  0  0  0  0  0  0  0  0  0  0  0
    8.1205   -4.6611   15.2227 O   0  0  0  0  0  0  0  0  0  0  0  0
    9.9927   -5.3891   19.6014 C   0  0  0  0  0  0  0  0  0  0  0  0
    1.1448  -12.0777   19.9991 N   0  0  0  0  0  0  0  0  0  0  0  0
    2.2834   -8.6699   16.2332 N   0  0  0  0  0  0  0  0  0  0  0  0
    9.6172   -4.8868   17.6075 C   0  0  0  0  0  0  0  0  0  0  0  0
    9.1657   -5.0546   18.5369 C   0  0  0  0  0  0  0  0  0  0  0  0
    2.4771   -6.8155   14.6333 C   0  0  0  0  0  0  0  0  0  0  0  0
    7.4799   -8.7411   16.8180 Cl  0  0  0  0  0  0  0  0  0  0  0  0
    8.0631   -7.9192   17.0650 O   0  0  0  0  0  0  0  0  0  0  0  0
    4.8249   -9.3454   17.6038 Cl  0  0  0  0  0  0  0  0  0  0  0  0
   10.7884   -4.2875   21.2472 F   0  0  0  0  0  0  0  0  0  0  0  0
    1.5679  -12.3627   21.2645 C   0  0  0  0  0  0  0  0  0  0  0  0
    9.4305   -3.7926   16.1429 C   0  0  0  0  0  0  0  0  0  0  0  0
    3.3998   -9.5824   15.1348 P   0  0  0  0  0  0  0  0  0  0  0  0
    0.2732  -12.3071   23.3224 C   0  0  0  0  0  0  0  0  0  0  0  0
   -0.2732  -10.8345   20.7326 C   0  0  0  0  0  0  0  0  0  0  0  0
    1.9080  -11.5918   18.4865 C   0  0  0  0  0  0  0  0  0  0  0  0
   10.9534   -4.1605   19.6469 F   0  0  0  0  0  0  0  0  0  0  0  0
    6.8098   -6.4187   15.0011 O   0  0  0  0  0  0  0  0  0  0  0  0
   11.0107   -5.0966   21.9850 He  0  0  0  0  0  0  0  0  0  0  0  0
    7.2530   -9.4267   17.7383 He  0  0  0  0  0  0  0  0  0  0  0  0
   -0.8045  -11.7877   22.2412 He  0  0  0  0  0  0  0  0  0  0  0  0
    1.5882  -10.1561   17.4249 He  0  0  0  0  0  0  0  0  0  0  0  0
   10.4812   -3.2650   19.6074 He  0  0  0  0  0  0  0  0  0  0  0  0
    5.4721   -8.2145   16.5139 He  0  0  0  0  0  0  0  0  0  0  0  0
    3.8463  -10.4146   17.3745 He  0  0  0  0  0  0  0  0  0  0  0  0
    2.1586  -11.4479   18.0332 He  0  0  0  0  0  0  0  0  0  0  0  0
  1 21  1  0
  2  3  2  0
  2  5  3  0
  2  7  4  0
  2  8  4  0
  2 11  4  0
  2 21  4  0
  3  4  4  0
  3 10  2  0
  3 11  4  0
  3 12  1  0
  3 13  1  0
  3 14  1  0
  3 15  1  0
  3 18  4  0
  3 19  4  0
  3 20  1  0
  4  5  2  0
  4  9  2  0
  4 11  1  0
  4 15  4  0
  4 19  4  0
  5 12  1  0
  5 14  4  0
  5 25  1  0
  6  8  4  0
  6 11  1  0
  6 14  1  0
  6 21  2  0
  7 10  3  0
  7 11  4  0
  7 12  4  0
  7 14  2  0
  7 15  2  0
  7 16  2  0
  7 19  4  0
  7 24  4  0
  7 26  2  0
  8  9  4  0
  8 17  2  0
  8 18  2  0
  8 19  3  0
  8 20  2  0
  8 22  1  0
  8 23  1  0
  8 26  4  0
  9 13  4  0
 10 16  1  0
 10 17  4  0
 10 19  4  0
 10 23  4  0
 10 24  1  0
 11 15  2  0
 11 16  2  0
 11 17  1  0
 11 19  3  0
 12 13  4  0
 12 18  4  0
 12 20  1  0
 12 21  3  0
 12 23  4  0
 13 18  4  0
 14 17  1  0
 14 19  4  0
 14 23  4  0
 14 25  2  0
 15 18  2  0
 15 21  4  0
 15 24  2  0
 15 26  4  0
 17 20  3  0
 17 21  1  0
 17 25  4  0
 18 20  2  0
 18 24  1  0
 18 25  1  0
 19 21  3  0
 19 23  3  0
 21 22  4  0
 24 25  1  0
M  END
$$$$

 Created by Python create_sdf_string function

 34 31  0  0  0  0  0  0  0  0999 V2000
   11.1515   -3.1275   21.9793 O   0  0  0  0  0  0  0  0  0  0  0  0
    8.1440   -5.9216   16.1370 C   0  0  0  0  0  0  0  0  0  0  0  0
   11.0073   -5.2636   22.1358 O   0  0  0  0  0  0  0  0  0  0  0  0
    2.8736  -11.4931   18.6424 O   0  0  0  0  0  0  0  0  0  0  0  0
    1.2597  -12.6602   22.4812 C   0  0  0  0  0  0  0  0  0  0  0  0
    5.0770   -8.2378   16.4031 C   0  0  0  0  0  0  0  0  0  0  0  0
   10.5554   -3.1405   18.0170 C   0  0  0  0  0  0  0  0  0  0  0  0
    8.5897   -6.4387   17.1910 N   0  0  0  0  0  0  0  0  0  0  0  0
    8.4798   -4.8473   15.5039 C   0  0  0  0  0  0  0  0  0  0  0  0
   10.0069   -5.4277   19.4550 C   0  0  0  0  0  0  0  0  0  0  0  0
    1.0288  -11.8086   20.2823 C   0  0  0  0  0  0  0  0  0  0  0  0
    2.5479   -9.2554   16.5853 N   0  0  0  0  0  0  0  0  0  0  0  0
    9.7734   -4.2979   17.4515 C   0  0  0  0  0  0  0  0  0  0  0  0
    9.5146   -5.4019   18.1077 C   0  0  0  0  0  0  0  0  0  0  0  0
    3.1688   -7.6825   15.3155 C   0  0  0  0  0  0  0  0  0  0  0  0
    7.1792   -8.0954   16.6462 C   0  0  0  0  0  0  0  0  0  0  0  0
    8.2404   -7.8911   17.1950 C   0  0  0  0  0  0  0  0  0  0  0  0
    4.6103   -9.3975   17.3011 C   0  0  0  0  0  0  0  0  0  0  0  0
   10.9494   -4.2470   21.4754 C   0  0  0  0  0  0  0  0  0  0  0  0
    1.7167  -12.5136   21.1937 C   0  0  0  0  0  0  0  0  0  0  0  0
    6.6433   -8.6390   17.2641 C   0  0  0  0  0  0  0  0  0  0  0  0
   -0.6110  -11.4229   22.0256 C   0  0  0  0  0  0  0  0  0  0  0  0
    1.6304  -10.1034   17.2382 C   0  0  0  0  0  0  0  0  0  0  0  0
    9.3557   -3.9221   16.1137 C   0  0  0  0  0  0  0  0  0  0  0  0
   10.9183   -3.2141   19.2939 C   0  0  0  0  0  0  0  0  0  0  0  0
    3.3801   -8.6811   16.0109 C   0  0  0  0  0  0  0  0  0  0  0  0
    0.1133  -12.1555   22.8980 C   0  0  0  0  0  0  0  0  0  0  0  0
    5.5839   -8.0981   16.2304 C   0  0  0  0  0  0  0  0  0  0  0  0
   -0.1774  -11.2340   20.7358 C   0  0  0  0  0  0  0  0  0  0  0  0
    1.4904  -11.7520   18.9112 C   0  0  0  0  0  0  0  0  0  0  0  0
    3.7851  -10.2073   17.7863 C   0  0  0  0  0  0  0  0  0  0  0  0
   10.6104   -4.3044   20.0710 C   0  0  0  0  0  0  0  0  0  0  0  0
    1.8727  -10.8304   18.2525 C   0  0  0  0  0  0  0  0  0  0  0  0
    6.8917   -6.4005   15.1747 O   0  0  0  0  0  0  0  0  0  0  0  0
  1 19  2  0
  2  8  4  0
  2  9  4  0
  2 34  1  0
  3 19  1  0
  4 30  2  0
  5 20  4  0
  5 27  4  0
  7 13  4  0
  7 25  4  0
  8 14  4  0
  8 17  1  0
  9 24  4  0
 10 14  4  0
 10 32  4  0
 11 20  4  0
 11 29  4  0
 11 30  1  0
 12 23  4  0
 12 26  4  0
 13 14  4  0
 13 24  4  0
 15 26  4  0
 16 17  1  0
 18 31  4  0
 19 32  1  0
 22 27  4  0
 22 29  4  0
 23 33  1  0
 25 32  4  0
 30 33  1  0
M  END
$$$$

 Created by Python create_sdf_string function

 34 94  0  0  0  0  0  0  0  0999 V2000
   11.4995   -2.9561   22.0701 O   0  0  0  0  0  0  0  0  0  0  0  0
    8.4611   -6.1123   15.8291 C   0  0  0  0  0  0  0  0  0  0  0  0
   10.9228   -5.6140   22.0211 O   0  0  0  0  0  0  0  0  0  0  0  0
    3.1548  -11.6337   18.2690 O   0  0  0  0  0  0  0  0  0  0  0  0
    0.9442  -13.0275   22.4567 C   0  0  0  0  0  0  0  0  0  0  0  0
    5.3667   -8.8143   16.2538 O   0  0  0  0  0  0  0  0  0  0  0  0
   10.9306   -2.8219   18.3248 O   0  0  0  0  0  0  0  0  0  0  0  0
    8.9677   -7.9606   16.6580 O   0  0  0  0  0  0  0  0  0  0  0  0
    7.7837   -4.4458   14.9022 N   0  0  0  0  0  0  0  0  0  0  0  0
   10.1257   -5.1718   19.5017 C   0  0  0  0  0  0  0  0  0  0  0  0
    0.7852  -11.3309   20.5553 C   0  0  0  0  0  0  0  0  0  0  0  0
    2.7834   -9.3263   17.2036 N   0  0  0  0  0  0  0  0  0  0  0  0
    9.4351   -3.9293   17.5648 N   0  0  0  0  0  0  0  0  0  0  0  0
    9.7400   -4.8697   18.2383 C   0  0  0  0  0  0  0  0  0  0  0  0
   10.2983   -4.1288   21.5270 C   0  0  0  0  0  0  0  0  0  0  0  0
    1.9310  -12.6630   20.5299 C   0  0  0  0  0  0  0  0  0  0  0  0
   -0.7134  -10.9829   21.8801 C   0  0  0  0  0  0  0  0  0  0  0  0
    1.3812   -9.9927   17.6547 O   0  0  0  0  0  0  0  0  0  0  0  0
    8.7650   -3.7140   15.8343 C   0  0  0  0  0  0  0  0  0  0  0  0
   10.7635   -2.8065   19.2146 C   0  0  0  0  0  0  0  0  0  0  0  0
   -0.3262  -12.3738   22.9716 C   0  0  0  0  0  0  0  0  0  0  0  0
    6.2091   -8.6588   14.8619 P   0  0  0  0  0  0  0  0  0  0  0  0
   -0.3485  -11.1543   20.7438 O   0  0  0  0  0  0  0  0  0  0  0  0
   10.8118   -4.3545   19.4384 C   0  0  0  0  0  0  0  0  0  0  0  0
    1.8809  -11.0463   18.0267 N   0  0  0  0  0  0  0  0  0  0  0  0
    6.6933   -6.3462   15.6173 O   0  0  0  0  0  0  0  0  0  0  0  0
    2.8796   -6.4868   14.8250 He  0  0  0  0  0  0  0  0  0  0  0  0
    7.3263   -7.8661   16.9376 He  0  0  0  0  0  0  0  0  0  0  0  0
    8.3851   -7.6624   16.8166 He  0  0  0  0  0  0  0  0  0  0  0  0
    4.7023  -10.8581   17.1393 He  0  0  0  0  0  0  0  0  0  0  0  0
    5.0742   -8.7677   17.1283 He  0  0  0  0  0  0  0  0  0  0  0  0
    3.6477   -9.0453   15.6378 He  0  0  0  0  0  0  0  0  0  0  0  0
    1.3493  -11.9580   18.9069 He  0  0  0  0  0  0  0  0  0  0  0  0
    3.9546  -10.4154   15.9243 He  0  0  0  0  0  0  0  0  0  0  0  0
  1  2  1  0
  1  3  2  0
  1  4  1  0
  1  7  1  0
  1 10  3  0
  1 15  1  0
  1 19  3  0
  1 21  2  0
  1 22  3  0
  2  8  4  0
  2  9  4  0
  2 10  4  0
  2 12  1  0
  2 21  4  0
  2 25  1  0
  3  8  1  0
  3 13  3  0
  3 15  1  0
  3 21  1  0
  3 22  1  0
  4  7  3  0
  4  8  1  0
  4 16  2  0
  4 20  2  0
  4 24  2  0
  4 26  1  0
  5 12  2  0
  5 13  3  0
  5 14  1  0
  5 16  4  0
  5 17  3  0
  5 21  2  0
  6 12  2  0
  6 14  3  0
  6 17  2  0
  6 18  3  0
  6 19  3  0
  6 20  3  0
  6 23  1  0
  6 25  1  0
  6 26  4  0
  7 13  4  0
  7 20  4  0
  7 26  3  0
  8 11  1  0
  8 12  2  0
  8 17  1  0
  8 18  2  0
  8 19  3  0
  8 22  4  0
  8 24  4  0
  8 25  1  0
  9 11  3  0
  9 14  1  0
  9 16  2  0
  9 18  2  0
  9 20  1  0
  9 22  3  0
  9 25  1  0
  9 26  2  0
 10 14  4  0
 10 17  1  0
 10 22  2  0
 10 24  1  0
 11 16  4  0
 11 22  3  0
 11 23  4  0
 12 13  2  0
 12 14  4  0
 12 15  3  0
 12 16  2  0
 12 21  2  0
 12 22  2  0
 12 24  2  0
 12 25  4  0
 13 14  4  0
 13 19  4  0
 13 20  1  0
 13 22  3  0
 14 18  1  0
 14 26  1  0
 15 16  4  0
 15 24  3  0
 16 22  2  0
 17 21  4  0
 17 22  2  0
 17 23  4  0
 18 25  1  0
 19 22  2  0
 20 24  4  0
 20 25  4  0
 21 22  4  0
 22 26  1  0
 25 26  1  0
M  END
$$$$

 Created by Python create_sdf_string function

 34 30  0  0  0  0  0  0  0  0999 V2000
   11.1189   -3.1377   22.0185 O   0  0  0  0  0  0  0  0  0  0  0  0
    8.3609   -5.7434   16.2961 C   0  0  0  0  0  0  0  0  0  0  0  0
   10.7911   -5.2633   21.9765 O   0  0  0  0  0  0  0  0  0  0  0  0
    3.8013  -10.9951   18.5910 N   0  0  0  0  0  0  0  0  0  0  0  0
    1.0017  -12.8382   22.3647 C   0  0  0  0  0  0  0  0  0  0  0  0
    5.6222   -8.2607   16.1552 C   0  0  0  0  0  0  0  0  0  0  0  0
   10.6080   -2.9055   17.9668 C   0  0  0  0  0  0  0  0  0  0  0  0
    8.5948   -6.6284   17.0085 C   0  0  0  0  0  0  0  0  0  0  0  0
    8.3098   -4.6686   15.6566 N   0  0  0  0  0  0  0  0  0  0  0  0
   10.0360   -5.2994   19.2226 C   0  0  0  0  0  0  0  0  0  0  0  0
    0.8538  -11.7355   20.2753 C   0  0  0  0  0  0  0  0  0  0  0  0
    2.9890  -10.1647   17.5423 N   0  0  0  0  0  0  0  0  0  0  0  0
    9.8177   -3.9036   17.2669 C   0  0  0  0  0  0  0  0  0  0  0  0
    9.6221   -5.0831   17.8904 C   0  0  0  0  0  0  0  0  0  0  0  0
    3.6655   -7.3766   15.2537 C   0  0  0  0  0  0  0  0  0  0  0  0
    7.1966   -7.8389   16.4689 C   0  0  0  0  0  0  0  0  0  0  0  0
    8.4310   -7.8775   17.0687 C   0  0  0  0  0  0  0  0  0  0  0  0
    4.2989  -10.2186   17.7285 C   0  0  0  0  0  0  0  0  0  0  0  0
   10.7640   -4.2580   21.4104 C   0  0  0  0  0  0  0  0  0  0  0  0
    1.5378  -12.5843   21.1151 C   0  0  0  0  0  0  0  0  0  0  0  0
    5.1998   -9.2397   17.3536 C   0  0  0  0  0  0  0  0  0  0  0  0
   -0.6897  -11.3333   21.9464 C   0  0  0  0  0  0  0  0  0  0  0  0
    1.1708  -10.1054   17.4563 O   0  0  0  0  0  0  0  0  0  0  0  0
    9.1621   -3.7214   16.0910 C   0  0  0  0  0  0  0  0  0  0  0  0
   10.9087   -3.0299   19.2851 C   0  0  0  0  0  0  0  0  0  0  0  0
    3.5218   -8.8309   15.9332 C   0  0  0  0  0  0  0  0  0  0  0  0
   -0.0939  -12.2295   22.7532 C   0  0  0  0  0  0  0  0  0  0  0  0
    6.2302   -7.9032   15.9026 C   0  0  0  0  0  0  0  0  0  0  0  0
   -0.2172  -11.0410   20.7240 C   0  0  0  0  0  0  0  0  0  0  0  0
    1.2708  -11.6446   18.9028 C   0  0  0  0  0  0  0  0  0  0  0  0
    3.8384   -9.3242   16.4673 C   0  0  0  0  0  0  0  0  0  0  0  0
   10.5629   -4.1600   19.9652 C   0  0  0  0  0  0  0  0  0  0  0  0
    1.7811  -10.7861   18.2030 N   0  0  0  0  0  0  0  0  0  0  0  0
    6.5609   -6.5578   15.3594 C   0  0  0  0  0  0  0  0  0  0  0  0
  1 19  1  0
  2  8  4  0
  2  9  4  0
  3 19  1  0
  4 18  4  0
  5 20  4  0
  5 27  4  0
  6 28  1  0
  7 13  4  0
  7 25  4  0
  8 17  4  0
  9 24  4  0
 10 14  4  0
 10 32  4  0
 11 20  4  0
 11 29  4  0
 11 30  1  0
 12 33  4  0
 13 14  4  0
 13 24  4  0
 16 17  4  0
 16 28  1  0
 18 21  4  0
 19 32  1  0
 22 27  4  0
 22 29  4  0
 23 33  1  0
 25 32  4  0
 26 31  4  0
 30 33  1  0
M  END
$$$$

 Created by Python create_sdf_string function

 34 64  0  0  0  0  0  0  0  0999 V2000
    8.0975   -5.8554   16.4297 C   0  0  0  0  0  0  0  0  0  0  0  0
    4.9219  -10.9730   18.8878 N   0  0  0  0  0  0  0  0  0  0  0  0
    1.2879  -12.8588   21.9539 C   0  0  0  0  0  0  0  0  0  0  0  0
   10.7244   -2.5486   18.0070 C   0  0  0  0  0  0  0  0  0  0  0  0
    8.7423   -5.3854   16.8562 N   0  0  0  0  0  0  0  0  0  0  0  0
   10.3273   -5.0640   19.0915 C   0  0  0  0  0  0  0  0  0  0  0  0
    0.7321  -11.9969   20.3269 C   0  0  0  0  0  0  0  0  0  0  0  0
   10.2574   -3.7022   17.3304 C   0  0  0  0  0  0  0  0  0  0  0  0
    9.7762   -5.4968   18.0418 C   0  0  0  0  0  0  0  0  0  0  0  0
    4.2786   -7.2850   14.9582 C   0  0  0  0  0  0  0  0  0  0  0  0
   10.5909   -3.8474   21.0881 C   0  0  0  0  0  0  0  0  0  0  0  0
    1.9463  -12.2423   21.1896 C   0  0  0  0  0  0  0  0  0  0  0  0
    6.3764   -9.0641   17.9873 C   0  0  0  0  0  0  0  0  0  0  0  0
   -0.7330  -11.4024   21.7662 C   0  0  0  0  0  0  0  0  0  0  0  0
    1.2329  -10.1116   17.1688 O   0  0  0  0  0  0  0  0  0  0  0  0
    9.3328   -3.5602   15.9706 C   0  0  0  0  0  0  0  0  0  0  0  0
   10.3676   -2.9978   18.7948 C   0  0  0  0  0  0  0  0  0  0  0  0
    3.0209   -9.2945   16.0421 C   0  0  0  0  0  0  0  0  0  0  0  0
    0.3132  -12.2146   22.4126 C   0  0  0  0  0  0  0  0  0  0  0  0
    5.4276   -7.4630   15.1805 Cl  0  0  0  0  0  0  0  0  0  0  0  0
    0.1468  -11.0911   20.5625 C   0  0  0  0  0  0  0  0  0  0  0  0
    1.4712  -12.0351   18.9985 C   0  0  0  0  0  0  0  0  0  0  0  0
    3.9723   -9.4619   17.0466 C   0  0  0  0  0  0  0  0  0  0  0  0
   10.1489   -4.0936   19.8775 C   0  0  0  0  0  0  0  0  0  0  0  0
    6.6685   -6.8383   15.5767 C   0  0  0  0  0  0  0  0  0  0  0  0
   11.3220   -3.0014   22.0559 He  0  0  0  0  0  0  0  0  0  0  0  0
   10.2550   -4.6922   22.1595 He  0  0  0  0  0  0  0  0  0  0  0  0
    6.8409   -8.3347   17.0080 He  0  0  0  0  0  0  0  0  0  0  0  0
    8.5943   -4.5039   16.3727 He  0  0  0  0  0  0  0  0  0  0  0  0
    4.7256  -10.5864   16.6000 He  0  0  0  0  0  0  0  0  0  0  0  0
    8.1370   -7.6148   17.7998 He  0  0  0  0  0  0  0  0  0  0  0  0
    8.2500   -7.8104   17.0399 He  0  0  0  0  0  0  0  0  0  0  0  0
    3.7182   -9.1318   18.1441 He  0  0  0  0  0  0  0  0  0  0  0  0
    1.7222  -10.5377   18.2226 He  0  0  0  0  0  0  0  0  0  0  0  0
  1 18  4  0
  2  5  2  0
  2  6  3  0
  2  7  1  0
  2 10  3  0
  2 13  4  0
  2 21  1  0
  2 23  4  0
  3 12  4  0
  3 16  3  0
  3 19  4  0
  3 21  4  0
  3 23  3  0
  3 24  1  0
  4  5  1  0
  4  7  2  0
  4  8  1  0
  4 16  3  0
  4 17  4  0
  4 20  2  0
  5 16  3  0
  5 21  2  0
  5 23  2  0
  5 25  3  0
  6 11  3  0
  6 14  2  0
  6 23  4  0
  6 24  4  0
  7 12  4  0
  7 13  2  0
  7 21  4  0
  7 22  1  0
  7 25  2  0
  8  9  4  0
  8 11  3  0
  8 12  3  0
  8 16  4  0
  8 21  4  0
  8 25  3  0
  9 11  3  0
  9 16  2  0
  9 18  4  0
 10 14  3  0
 10 19  1  0
 10 23  4  0
 10 24  2  0
 11 13  3  0
 11 24  1  0
 12 13  4  0
 12 18  4  0
 13 17  4  0
 13 21  2  0
 13 24  4  0
 13 25  1  0
 14 18  1  0
 14 21  4  0
 14 23  3  0
 15 18  2  0
 15 24  3  0
 17 18  3  0
 17 19  1  0
 17 24  4  0
 18 23  4  0
 23 24  4  0
M  END
$$$$

 Created by Python create_sdf_string function

 34 28  0  0  0  0  0  0  0  0999 V2000
   11.1371   -2.7954   21.8145 O   0  0  0  0  0  0  0  0  0  0  0  0
    8.3122   -5.7068   16.2079 C   0  0  0  0  0  0  0  0  0  0  0  0
   10.4739   -4.8166   22.0918 O   0  0  0  0  0  0  0  0  0  0  0  0
    3.8635  -10.6478   18.5284 N   0  0  0  0  0  0  0  0  0  0  0  0
    1.3270  -12.6533   22.3385 C   0  0  0  0  0  0  0  0  0  0  0  0
    6.3649   -8.2828   16.9722 C   0  0  0  0  0  0  0  0  0  0  0  0
   10.6827   -2.9058   17.7585 C   0  0  0  0  0  0  0  0  0  0  0  0
    8.4769   -5.8317   16.7548 N   0  0  0  0  0  0  0  0  0  0  0  0
    8.4560   -4.7280   15.6919 N   0  0  0  0  0  0  0  0  0  0  0  0
   10.1086   -5.1586   19.3075 C   0  0  0  0  0  0  0  0  0  0  0  0
    1.0766  -11.8093   20.1785 C   0  0  0  0  0  0  0  0  0  0  0  0
    3.8026   -9.8979   17.5349 C   0  0  0  0  0  0  0  0  0  0  0  0
    9.9426   -3.9644   17.2228 C   0  0  0  0  0  0  0  0  0  0  0  0
    9.6745   -5.0498   17.9393 C   0  0  0  0  0  0  0  0  0  0  0  0
    4.6284   -7.8802   15.5366 C   0  0  0  0  0  0  0  0  0  0  0  0
    8.0532   -7.5053   17.3584 C   0  0  0  0  0  0  0  0  0  0  0  0
    8.2121   -7.9915   17.2668 C   0  0  0  0  0  0  0  0  0  0  0  0
    4.7362   -9.7635   17.7403 C   0  0  0  0  0  0  0  0  0  0  0  0
   10.6963   -3.9270   21.3384 C   0  0  0  0  0  0  0  0  0  0  0  0
    1.8656  -12.4562   21.0983 C   0  0  0  0  0  0  0  0  0  0  0  0
    5.8659   -9.0783   17.7520 C   0  0  0  0  0  0  0  0  0  0  0  0
   -0.5907  -11.4310   21.8199 C   0  0  0  0  0  0  0  0  0  0  0  0
    1.3475  -10.1876   17.2123 O   0  0  0  0  0  0  0  0  0  0  0  0
    9.5360   -3.7585   15.9071 C   0  0  0  0  0  0  0  0  0  0  0  0
   10.9197   -2.9128   19.1130 C   0  0  0  0  0  0  0  0  0  0  0  0
    2.8526   -9.2424   16.4382 C   0  0  0  0  0  0  0  0  0  0  0  0
    0.1532  -12.1865   22.6734 C   0  0  0  0  0  0  0  0  0  0  0  0
    5.2191   -7.6353   15.6402 C   0  0  0  0  0  0  0  0  0  0  0  0
   -0.1322  -11.2047   20.5604 C   0  0  0  0  0  0  0  0  0  0  0  0
    1.4437  -11.8837   18.7124 C   0  0  0  0  0  0  0  0  0  0  0  0
    3.6316   -9.4496   16.9103 C   0  0  0  0  0  0  0  0  0  0  0  0
   10.5894   -3.9967   19.8927 C   0  0  0  0  0  0  0  0  0  0  0  0
    1.9563  -10.8310   18.1364 C   0  0  0  0  0  0  0  0  0  0  0  0
    6.5945   -6.8898   15.7479 C   0  0  0  0  0  0  0  0  0  0  0  0
  1 19  1  0
  2  8  4  0
  2  9  4  0
  3 19  2  0
  5 20  4  0
  5 27  4  0
  6 21  4  0
  7 13  4  0
  7 25  4  0
  9 24  4  0
 10 14  4  0
 10 32  4  0
 11 20  4  0
 11 29  4  0
 11 30  1  0
 12 31  4  0
 13 14  4  0
 13 24  4  0
 15 28  4  0
 16 17  1  0
 18 21  4  0
 19 32  1  0
 22 27  4  0
 22 29  4  0
 23 33  1  0
 25 32  4  0
 26 31  4  0
 30 33  2  0
M  END
$$$$

 Created by Python create_sdf_string function

 34 69  0  0  0  0  0  0  0  0999 V2000
   11.1013   -2.8858   21.8438 O   0  0  0  0  0  0  0  0  0  0  0  0
    8.1106   -5.5252   16.2410 C   0  0  0  0  0  0  0  0  0  0  0  0
   10.7262   -4.9596   22.1005 O   0  0  0  0  0  0  0  0  0  0  0  0
    1.4392  -12.4894   22.5374 C   0  0  0  0  0  0  0  0  0  0  0  0
    7.1746   -9.0515   16.3281 C   0  0  0  0  0  0  0  0  0  0  0  0
   10.6971   -2.8602   17.9882 C   0  0  0  0  0  0  0  0  0  0  0  0
    1.0829  -12.1825   19.8881 C   0  0  0  0  0  0  0  0  0  0  0  0
   10.1400   -3.9468   17.4724 C   0  0  0  0  0  0  0  0  0  0  0  0
    9.2264   -5.2745   18.1219 C   0  0  0  0  0  0  0  0  0  0  0  0
    3.5845   -7.3666   13.7556 C   0  0  0  0  0  0  0  0  0  0  0  0
    8.4489   -5.5741   17.1682 C   0  0  0  0  0  0  0  0  0  0  0  0
    8.3134   -8.4127   17.2118 C   0  0  0  0  0  0  0  0  0  0  0  0
    4.1464   -9.1328   18.4796 C   0  0  0  0  0  0  0  0  0  0  0  0
   10.7679   -3.8449   21.5998 C   0  0  0  0  0  0  0  0  0  0  0  0
    1.3573  -12.5795   20.8814 C   0  0  0  0  0  0  0  0  0  0  0  0
    6.6618   -9.5966   17.6640 C   0  0  0  0  0  0  0  0  0  0  0  0
   -0.8180  -11.5551   21.9337 C   0  0  0  0  0  0  0  0  0  0  0  0
   10.5203   -2.9247   19.0647 C   0  0  0  0  0  0  0  0  0  0  0  0
    3.4186  -11.7351   17.6765 C   0  0  0  0  0  0  0  0  0  0  0  0
    0.1198  -12.1501   23.4905 C   0  0  0  0  0  0  0  0  0  0  0  0
    5.1906   -6.7623   15.6833 O   0  0  0  0  0  0  0  0  0  0  0  0
    0.4109  -11.2349   20.4334 C   0  0  0  0  0  0  0  0  0  0  0  0
   10.6208   -4.1817   20.2039 C   0  0  0  0  0  0  0  0  0  0  0  0
    2.1536  -10.7299   18.4441 C   0  0  0  0  0  0  0  0  0  0  0  0
    6.6529   -7.1516   15.7017 C   0  0  0  0  0  0  0  0  0  0  0  0
    2.5250  -11.0279   18.5075 He  0  0  0  0  0  0  0  0  0  0  0  0
    8.9279   -7.2830   16.8873 He  0  0  0  0  0  0  0  0  0  0  0  0
    7.6524   -4.6210   17.1647 He  0  0  0  0  0  0  0  0  0  0  0  0
   10.2606   -5.1835   19.4869 He  0  0  0  0  0  0  0  0  0  0  0  0
    3.8936   -9.4353   16.7096 He  0  0  0  0  0  0  0  0  0  0  0  0
    1.4244  -10.3178   16.9887 He  0  0  0  0  0  0  0  0  0  0  0  0
    9.6953   -3.8759   15.8036 He  0  0  0  0  0  0  0  0  0  0  0  0
    1.9148  -12.0327   18.8153 He  0  0  0  0  0  0  0  0  0  0  0  0
    3.7285   -8.4856   15.5021 He  0  0  0  0  0  0  0  0  0  0  0  0
  1  5  3  0
  1 14  1  0
  1 24  1  0
  2  3  1  0
  2  9  1  0
  3  5  4  0
  3  7  2  0
  3 16  2  0
  3 19  3  0
  4  5  4  0
  4 15  4  0
  4 20  4  0
  4 21  3  0
  4 22  2  0
  4 24  1  0
  5 11  4  0
  5 14  2  0
  5 17  1  0
  5 18  4  0
  5 25  2  0
  6  8  4  0
  6 11  1  0
  6 18  4  0
  6 20  2  0
  7 15  4  0
  7 20  1  0
  8  9  4  0
  8 10  4  0
  8 13  1  0
  9 12  3  0
  9 18  4  0
  9 25  1  0
 10 13  3  0
 10 17  3  0
 10 20  4  0
 10 21  1  0
 10 22  3  0
 10 23  3  0
 10 24  4  0
 11 15  3  0
 11 18  3  0
 11 21  4  0
 11 23  4  0
 11 24  4  0
 12 15  2  0
 12 20  4  0
 12 21  3  0
 13 16  1  0
 13 20  3  0
 13 24  3  0
 14 15  3  0
 14 21  1  0
 14 23  1  0
 15 17  2  0
 15 19  4  0
 15 21  3  0
 15 24  2  0
 16 17  3  0
 16 18  3  0
 16 19  1  0
 17 19  3  0
 17 20  4  0
 17 21  4  0
 17 22  1  0
 18 19  2  0
 18 21  3  0
 19 20  3  0
 19 24  2  0
 21 23  4  0
M  END
$$$$

 Created by Python create_sdf_string function

 34 34  0  0  0  0  0  0  0  0999 V2000
   11.0604   -2.8545   21.9967 O   0  0  0  0  0  0  0  0  0  0  0  0
    8.3471   -5.3959   16.0856 C   0  0  0  0  0  0  0  0  0  0  0  0
   10.7571   -5.0085   22.1939 O   0  0  0  0  0  0  0  0  0  0  0  0
    2.3427  -10.4112   17.6791 C   0  0  0  0  0  0  0  0  0  0  0  0
    1.2440  -12.7490   22.5127 C   0  0  0  0  0  0  0  0  0  0  0  0
    6.7974   -8.2504   16.8147 C   0  0  0  0  0  0  0  0  0  0  0  0
   10.6816   -3.0492   17.8684 C   0  0  0  0  0  0  0  0  0  0  0  0
    8.5180   -6.9550   17.2475 C   0  0  0  0  0  0  0  0  0  0  0  0
    7.8859   -5.5637   16.0822 O   0  0  0  0  0  0  0  0  0  0  0  0
   10.0403   -5.2321   19.5506 C   0  0  0  0  0  0  0  0  0  0  0  0
    1.1241  -11.9905   20.2521 C   0  0  0  0  0  0  0  0  0  0  0  0
    3.3949   -9.3121   16.8302 C   0  0  0  0  0  0  0  0  0  0  0  0
    9.9652   -4.0953   17.4094 C   0  0  0  0  0  0  0  0  0  0  0  0
    9.6342   -5.2207   18.1738 C   0  0  0  0  0  0  0  0  0  0  0  0
    4.1372   -7.3167   14.9545 C   0  0  0  0  0  0  0  0  0  0  0  0
    8.6854   -6.3939   17.2394 C   0  0  0  0  0  0  0  0  0  0  0  0
    8.3617   -8.3943   17.1702 C   0  0  0  0  0  0  0  0  0  0  0  0
    4.7875   -9.6293   17.6250 C   0  0  0  0  0  0  0  0  0  0  0  0
   10.8175   -3.9944   21.5207 C   0  0  0  0  0  0  0  0  0  0  0  0
    1.7155  -12.7338   21.2191 C   0  0  0  0  0  0  0  0  0  0  0  0
    6.0644   -9.0190   17.1905 C   0  0  0  0  0  0  0  0  0  0  0  0
   -0.5260  -11.3320   21.9138 C   0  0  0  0  0  0  0  0  0  0  0  0
    1.6276   -9.9845   16.9753 C   0  0  0  0  0  0  0  0  0  0  0  0
    9.4955   -4.0129   16.1062 N   0  0  0  0  0  0  0  0  0  0  0  0
   10.9721   -2.9785   19.2466 C   0  0  0  0  0  0  0  0  0  0  0  0
    3.6257  -10.8328   18.3518 C   0  0  0  0  0  0  0  0  0  0  0  0
    0.1697  -12.0299   22.8625 C   0  0  0  0  0  0  0  0  0  0  0  0
    5.0194   -7.4654   15.5009 C   0  0  0  0  0  0  0  0  0  0  0  0
   -0.0591  -11.2922   20.6158 C   0  0  0  0  0  0  0  0  0  0  0  0
    1.5981  -12.0863   18.8248 C   0  0  0  0  0  0  0  0  0  0  0  0
    3.9226   -8.8002   16.4527 C   0  0  0  0  0  0  0  0  0  0  0  0
   10.6184   -4.0452   20.0692 C   0  0  0  0  0  0  0  0  0  0  0  0
    2.4080  -11.1657   18.4445 C   0  0  0  0  0  0  0  0  0  0  0  0
    6.5097   -7.1347   15.8020 C   0  0  0  0  0  0  0  0  0  0  0  0
  1 19  1  0
  2  8  4  0
  2  9  4  0
  2 24  4  0
  3 19  2  0
  4 23  4  0
  4 33  4  0
  5 20  4  0
  5 27  4  0
  6 17  1  0
  6 21  4  0
  6 34  4  0
  7 13  4  0
  7 25  4  0
  8 17  4  0
 10 14  4  0
 10 32  4  0
 11 20  4  0
 11 29  4  0
 11 30  1  0
 12 23  4  0
 12 31  4  0
 13 14  4  0
 13 24  4  0
 14 16  4  0
 15 28  1  0
 18 21  4  0
 19 32  1  0
 22 27  4  0
 22 29  4  0
 25 32  4  0
 26 33  4  0
 28 34  4  0
 30 33  1  0
M  END
$$$$

 Created by Python create_sdf_string function

 34 65  0  0  0  0  0  0  0  0999 V2000
    8.5726   -5.4797   15.7490 C   0  0  0  0  0  0  0  0  0  0  0  0
   10.4216   -4.7779   22.1516 O   0  0  0  0  0  0  0  0  0  0  0  0
    2.0401   -9.9332   18.6036 S   0  0  0  0  0  0  0  0  0  0  0  0
    6.9187   -7.5200   17.0047 O   0  0  0  0  0  0  0  0  0  0  0  0
   10.8990   -3.1144   18.1294 C   0  0  0  0  0  0  0  0  0  0  0  0
    8.3976   -7.0102   18.0378 C   0  0  0  0  0  0  0  0  0  0  0  0
    9.7720   -5.6545   20.0224 C   0  0  0  0  0  0  0  0  0  0  0  0
    9.9300   -4.4434   17.2149 C   0  0  0  0  0  0  0  0  0  0  0  0
   10.1421   -5.3566   17.6858 C   0  0  0  0  0  0  0  0  0  0  0  0
    3.9529   -8.2987   14.9168 C   0  0  0  0  0  0  0  0  0  0  0  0
    4.0568  -10.3629   18.1154 C   0  0  0  0  0  0  0  0  0  0  0  0
    1.8209  -12.6324   20.8324 C   0  0  0  0  0  0  0  0  0  0  0  0
   -0.6167  -11.5742   21.8407 C   0  0  0  0  0  0  0  0  0  0  0  0
    1.2995  -10.0171   16.7195 C   0  0  0  0  0  0  0  0  0  0  0  0
    9.5908   -4.1849   15.7389 N   0  0  0  0  0  0  0  0  0  0  0  0
   11.2183   -2.9940   19.4188 C   0  0  0  0  0  0  0  0  0  0  0  0
    3.3753   -9.9099   18.1147 F   0  0  0  0  0  0  0  0  0  0  0  0
   -0.3226  -11.1073   20.3581 Cl  0  0  0  0  0  0  0  0  0  0  0  0
    1.6595  -12.1356   18.7969 F   0  0  0  0  0  0  0  0  0  0  0  0
    2.9818  -10.2214   16.5827 P   0  0  0  0  0  0  0  0  0  0  0  0
   10.6083   -3.4847   20.2995 C   0  0  0  0  0  0  0  0  0  0  0  0
    1.7522  -11.3829   18.5687 C   0  0  0  0  0  0  0  0  0  0  0  0
    5.9168   -7.5872   15.8864 C   0  0  0  0  0  0  0  0  0  0  0  0
   11.5916   -2.7578   22.3774 He  0  0  0  0  0  0  0  0  0  0  0  0
    1.6886  -12.5854   22.1702 He  0  0  0  0  0  0  0  0  0  0  0  0
    6.8417   -6.4022   16.0058 He  0  0  0  0  0  0  0  0  0  0  0  0
    0.8903  -11.7857   20.5256 He  0  0  0  0  0  0  0  0  0  0  0  0
    3.2226   -9.1702   16.6371 He  0  0  0  0  0  0  0  0  0  0  0  0
    9.1464   -4.2372   16.3381 He  0  0  0  0  0  0  0  0  0  0  0  0
    8.0842   -8.2055   17.1195 He  0  0  0  0  0  0  0  0  0  0  0  0
   10.2803   -4.3124   21.1079 He  0  0  0  0  0  0  0  0  0  0  0  0
    5.8678   -9.0335   16.5676 He  0  0  0  0  0  0  0  0  0  0  0  0
    0.3536  -12.2066   22.8253 He  0  0  0  0  0  0  0  0  0  0  0  0
    5.8607   -7.7531   17.4583 He  0  0  0  0  0  0  0  0  0  0  0  0
  1 15  4  0
  1 17  3  0
  1 20  3  0
  2  3  2  0
  2  6  3  0
  2  9  2  0
  2 10  3  0
  2 21  4  0
  2 22  4  0
  3  6  2  0
  3  7  3  0
  3  9  2  0
  3 10  1  0
  3 11  2  0
  3 12  4  0
  3 14  4  0
  3 21  3  0
  3 22  2  0
  4  7  3  0
  4 13  2  0
  4 23  3  0
  5  6  3  0
  5  8  4  0
  5 10  2  0
  5 16  4  0
  5 17  2  0
  5 19  1  0
  6  7  4  0
  6  8  3  0
  6 17  4  0
  6 19  2  0
  6 21  3  0
  7  9  4  0
  7 15  1  0
  7 20  1  0
  8 15  4  0
  8 17  3  0
  9 10  2  0
  9 11  1  0
  9 12  1  0
  9 17  2  0
 10 12  2  0
 10 13  3  0
 10 16  1  0
 10 18  4  0
 10 20  3  0
 10 22  1  0
 10 23  2  0
 11 12  1  0
 11 13  2  0
 11 14  1  0
 11 22  2  0
 11 23  4  0
 12 20  1  0
 13 15  1  0
 13 18  4  0
 15 18  1  0
 15 20  3  0
 16 21  4  0
 17 18  4  0
 17 20  2  0
 17 21  1  0
 17 23  4  0
 19 22  1  0
 21 22  4  0
M  END
$$$$

 Created by Python create_sdf_string function

 34 31  0  0  0  0  0  0  0  0999 V2000
   11.2192   -2.8569   22.0628 O   0  0  0  0  0  0  0  0  0  0  0  0
    8.7247   -5.1085   15.8884 C   0  0  0  0  0  0  0  0  0  0  0  0
   10.5253   -4.8812   22.1968 O   0  0  0  0  0  0  0  0  0  0  0  0
    1.2655  -10.4435   17.6830 N   0  0  0  0  0  0  0  0  0  0  0  0
    1.4346  -12.6616   22.4093 C   0  0  0  0  0  0  0  0  0  0  0  0
    6.9665   -7.5924   16.9621 C   0  0  0  0  0  0  0  0  0  0  0  0
   10.7772   -3.1364   17.7974 C   0  0  0  0  0  0  0  0  0  0  0  0
    8.4844   -7.2176   17.5066 C   0  0  0  0  0  0  0  0  0  0  0  0
    7.2857   -6.5367   16.1350 C   0  0  0  0  0  0  0  0  0  0  0  0
   10.0384   -5.1981   19.5374 C   0  0  0  0  0  0  0  0  0  0  0  0
    0.9835  -11.9869   20.2285 C   0  0  0  0  0  0  0  0  0  0  0  0
    3.1549   -9.1926   16.5442 C   0  0  0  0  0  0  0  0  0  0  0  0
   10.0516   -4.1385   17.2557 C   0  0  0  0  0  0  0  0  0  0  0  0
    9.6601   -5.2463   18.1289 C   0  0  0  0  0  0  0  0  0  0  0  0
    4.3062   -8.1270   15.5330 C   0  0  0  0  0  0  0  0  0  0  0  0
    8.9793   -5.7882   17.1188 C   0  0  0  0  0  0  0  0  0  0  0  0
    8.1141   -8.3755   17.3277 C   0  0  0  0  0  0  0  0  0  0  0  0
    4.1889  -10.1784   17.8517 C   0  0  0  0  0  0  0  0  0  0  0  0
   10.7641   -3.9885   21.4895 C   0  0  0  0  0  0  0  0  0  0  0  0
    1.8628  -12.5829   21.1017 C   0  0  0  0  0  0  0  0  0  0  0  0
    5.6914   -9.1026   17.2900 C   0  0  0  0  0  0  0  0  0  0  0  0
   -0.5432  -11.4831   21.9408 C   0  0  0  0  0  0  0  0  0  0  0  0
    1.3708   -9.8757   16.7626 C   0  0  0  0  0  0  0  0  0  0  0  0
    9.5453   -4.2250   16.0454 N   0  0  0  0  0  0  0  0  0  0  0  0
   10.9957   -3.0294   19.1954 C   0  0  0  0  0  0  0  0  0  0  0  0
    3.3853  -10.5489   18.0635 N   0  0  0  0  0  0  0  0  0  0  0  0
    0.2846  -12.1212   22.7723 C   0  0  0  0  0  0  0  0  0  0  0  0
    6.1290   -7.9636   17.0753 C   0  0  0  0  0  0  0  0  0  0  0  0
   -0.2284  -11.3600   20.6345 C   0  0  0  0  0  0  0  0  0  0  0  0
    1.3127  -12.2200   18.6995 C   0  0  0  0  0  0  0  0  0  0  0  0
    2.9921   -9.5178   16.8190 C   0  0  0  0  0  0  0  0  0  0  0  0
   10.6232   -4.0459   20.0801 C   0  0  0  0  0  0  0  0  0  0  0  0
    1.9794  -11.2161   18.3580 C   0  0  0  0  0  0  0  0  0  0  0  0
    5.6193   -7.6747   15.8021 C   0  0  0  0  0  0  0  0  0  0  0  0
  1 19  1  0
  2 16  4  0
  2 24  4  0
  3 19  2  0
  4 23  4  0
  4 33  4  0
  5 20  4  0
  5 27  4  0
  7 13  4  0
  7 25  4  0
  8 16  4  0
 10 14  4  0
 10 32  4  0
 11 20  4  0
 11 29  4  0
 11 30  1  0
 12 31  4  0
 13 14  4  0
 13 24  4  0
 14 16  4  0
 15 34  4  0
 18 21  4  0
 18 26  4  0
 19 32  1  0
 22 27  4  0
 22 29  4  0
 23 31  4  0
 25 32  4  0
 26 31  4  0
 26 33  4  0
 30 33  1  0
M  END
$$$$

 Created by Python create_sdf_string function

 34110  0  0  0  0  0  0  0  0999 V2000
   11.2104   -2.3945   22.0616 O   0  0  0  0  0  0  0  0  0  0  0  0
    8.6304   -5.3464   16.5221 C   0  0  0  0  0  0  0  0  0  0  0  0
   11.1296   -4.7433   22.2400 O   0  0  0  0  0  0  0  0  0  0  0  0
    0.1958  -11.5199   18.1877 O   0  0  0  0  0  0  0  0  0  0  0  0
    1.4704  -12.7855   22.5655 C   0  0  0  0  0  0  0  0  0  0  0  0
    5.8955   -8.1448   16.7174 Br  0  0  0  0  0  0  0  0  0  0  0  0
   10.8518   -2.9729   17.7069 C   0  0  0  0  0  0  0  0  0  0  0  0
    7.4065   -5.8674   15.4413 F   0  0  0  0  0  0  0  0  0  0  0  0
   10.6075   -5.1186   19.4916 C   0  0  0  0  0  0  0  0  0  0  0  0
    0.8267  -11.8437   19.9776 C   0  0  0  0  0  0  0  0  0  0  0  0
    3.5553   -9.3352   16.3544 Cl  0  0  0  0  0  0  0  0  0  0  0  0
    9.8211   -4.1434   17.2726 C   0  0  0  0  0  0  0  0  0  0  0  0
    9.2510   -5.4255   17.9562 C   0  0  0  0  0  0  0  0  0  0  0  0
    4.3248   -7.7221   13.7358 C   0  0  0  0  0  0  0  0  0  0  0  0
    8.7443   -5.4168   19.0462 Cl  0  0  0  0  0  0  0  0  0  0  0  0
   10.5157   -3.9963   21.4071 C   0  0  0  0  0  0  0  0  0  0  0  0
    2.2128  -12.7948   21.4672 C   0  0  0  0  0  0  0  0  0  0  0  0
    4.8994   -8.9364   17.2562 C   0  0  0  0  0  0  0  0  0  0  0  0
    0.7730   -9.8580   16.8606 C   0  0  0  0  0  0  0  0  0  0  0  0
    9.5530   -4.5350   15.7171 N   0  0  0  0  0  0  0  0  0  0  0  0
    3.5421  -11.2527   19.2333 N   0  0  0  0  0  0  0  0  0  0  0  0
   -0.0608  -11.9047   22.5748 N   0  0  0  0  0  0  0  0  0  0  0  0
   -0.2458  -11.0755   20.4720 P   0  0  0  0  0  0  0  0  0  0  0  0
    1.2949  -12.0765   18.8641 Cl  0  0  0  0  0  0  0  0  0  0  0  0
    2.3005   -8.2698   16.2431 O   0  0  0  0  0  0  0  0  0  0  0  0
   10.2915   -4.2881   19.9971 C   0  0  0  0  0  0  0  0  0  0  0  0
    2.1293  -10.9797   17.9706 C   0  0  0  0  0  0  0  0  0  0  0  0
    5.1330   -7.3784   15.3922 C   0  0  0  0  0  0  0  0  0  0  0  0
    7.5288   -7.9105   18.8229 He  0  0  0  0  0  0  0  0  0  0  0  0
    7.6845   -8.5924   17.7073 He  0  0  0  0  0  0  0  0  0  0  0  0
    5.4717   -9.8705   17.9944 He  0  0  0  0  0  0  0  0  0  0  0  0
   -0.5517  -11.3567   22.2262 He  0  0  0  0  0  0  0  0  0  0  0  0
   10.9925   -2.5652   19.0877 He  0  0  0  0  0  0  0  0  0  0  0  0
    7.1043   -6.7402   17.1583 He  0  0  0  0  0  0  0  0  0  0  0  0
  1  4  1  0
  1 14  3  0
  1 15  2  0
  1 16  1  0
  1 17  3  0
  1 18  4  0
  1 21  4  0
  1 23  4  0
  1 25  1  0
  2  4  1  0
  2  6  2  0
  2  8  2  0
  2 11  4  0
  2 17  2  0
  2 20  4  0
  2 26  3  0
  3 11  3  0
  3 14  1  0
  3 16  2  0
  3 18  1  0
  3 27  4  0
  4  6  3  0
  4  9  4  0
  4 11  1  0
  4 16  1  0
  4 27  4  0
  5 15  1  0
  5 17  4  0
  5 20  4  0
  5 21  4  0
  5 25  3  0
  6  9  2  0
  6 10  4  0
  6 12  2  0
  6 13  2  0
  6 19  3  0
  6 20  2  0
  6 22  2  0
  6 23  2  0
  6 24  4  0
  7  8  3  0
  7 18  3  0
  7 21  1  0
  7 25  1  0
  8  9  3  0
  8 17  4  0
  8 19  3  0
  8 25  3  0
  8 26  4  0
  9 13  4  0
  9 16  2  0
  9 21  4  0
  9 25  2  0
  9 26  4  0
 10 11  4  0
 10 12  4  0
 10 15  2  0
 10 17  4  0
 10 20  4  0
 10 21  1  0
 10 25  1  0
 10 27  4  0
 10 28  1  0
 11 16  2  0
 11 17  3  0
 11 18  1  0
 11 22  3  0
 11 23  1  0
 11 25  3  0
 11 26  2  0
 12 13  4  0
 12 14  2  0
 12 16  1  0
 12 18  3  0
 12 20  4  0
 12 21  1  0
 12 24  1  0
 12 28  1  0
 13 14  2  0
 13 15  4  0
 13 19  2  0
 13 22  1  0
 13 26  3  0
 14 19  4  0
 14 20  4  0
 14 21  3  0
 14 25  2  0
 14 26  4  0
 14 27  1  0
 14 28  2  0
 15 19  1  0
 15 22  2  0
 15 24  2  0
 15 27  2  0
 16 18  2  0
 16 26  3  0
 17 18  1  0
 17 19  4  0
 18 19  1  0
 18 22  1  0
 18 25  3  0
 18 28  2  0
 19 21  1  0
 20 21  3  0
 21 22  2  0
 21 23  2  0
 21 25  4  0
 22 25  2  0
 23 26  4  0
 24 25  3  0
M  END
$$$$

 Created by Python create_sdf_string function

 34 32  0  0  0  0  0  0  0  0999 V2000
   11.1147   -2.6642   21.8368 O   0  0  0  0  0  0  0  0  0  0  0  0
    8.4371   -5.5865   16.3389 C   0  0  0  0  0  0  0  0  0  0  0  0
   10.9279   -4.8263   22.2065 O   0  0  0  0  0  0  0  0  0  0  0  0
    0.7452  -10.9757   17.9005 N   0  0  0  0  0  0  0  0  0  0  0  0
    1.3197  -12.6071   22.5506 C   0  0  0  0  0  0  0  0  0  0  0  0
    5.9012   -8.0612   16.7063 C   0  0  0  0  0  0  0  0  0  0  0  0
   10.7503   -3.2388   17.6744 C   0  0  0  0  0  0  0  0  0  0  0  0
    7.1111   -7.9846   17.7558 C   0  0  0  0  0  0  0  0  0  0  0  0
    7.5638   -5.6865   15.4489 O   0  0  0  0  0  0  0  0  0  0  0  0
   10.0394   -5.1748   19.5307 C   0  0  0  0  0  0  0  0  0  0  0  0
    1.0912  -11.8751   20.3608 C   0  0  0  0  0  0  0  0  0  0  0  0
    3.5498   -9.2701   16.8837 C   0  0  0  0  0  0  0  0  0  0  0  0
    9.9334   -4.3100   17.3326 C   0  0  0  0  0  0  0  0  0  0  0  0
    9.6066   -5.2646   18.2332 C   0  0  0  0  0  0  0  0  0  0  0  0
    4.1850   -7.8106   15.0741 C   0  0  0  0  0  0  0  0  0  0  0  0
    8.7053   -6.2134   17.6891 N   0  0  0  0  0  0  0  0  0  0  0  0
    7.5345   -8.3019   17.6467 C   0  0  0  0  0  0  0  0  0  0  0  0
    5.0690   -9.5038   17.7942 C   0  0  0  0  0  0  0  0  0  0  0  0
   10.9348   -3.8437   21.4375 C   0  0  0  0  0  0  0  0  0  0  0  0
    1.8246  -12.5088   21.3193 C   0  0  0  0  0  0  0  0  0  0  0  0
    4.6030   -9.0839   17.1061 C   0  0  0  0  0  0  0  0  0  0  0  0
   -0.5608  -11.3253   22.0516 C   0  0  0  0  0  0  0  0  0  0  0  0
    1.2981   -9.9532   16.9573 C   0  0  0  0  0  0  0  0  0  0  0  0
    9.3211   -4.5483   16.2457 N   0  0  0  0  0  0  0  0  0  0  0  0
   11.0309   -3.0266   19.1005 C   0  0  0  0  0  0  0  0  0  0  0  0
    3.3150  -10.7126   18.4745 N   0  0  0  0  0  0  0  0  0  0  0  0
    0.1682  -12.0278   22.9042 C   0  0  0  0  0  0  0  0  0  0  0  0
    7.8766   -6.8317   17.3109 C   0  0  0  0  0  0  0  0  0  0  0  0
   -0.1774  -11.2235   20.7418 C   0  0  0  0  0  0  0  0  0  0  0  0
    1.6026  -11.7990   19.0039 C   0  0  0  0  0  0  0  0  0  0  0  0
    2.7466   -9.0506   16.3465 C   0  0  0  0  0  0  0  0  0  0  0  0
   10.6895   -4.0046   19.9981 C   0  0  0  0  0  0  0  0  0  0  0  0
    2.1800  -10.8849   18.2665 C   0  0  0  0  0  0  0  0  0  0  0  0
    5.1971   -7.6227   15.5992 C   0  0  0  0  0  0  0  0  0  0  0  0
  1 19  1  0
  2  9  2  0
  2 16  4  0
  2 24  4  0
  3 19  2  0
  4 23  4  0
  4 33  4  0
  5 20  4  0
  5 27  4  0
  6 34  1  0
  7 13  4  0
  7 25  4  0
  8 17  1  0
 10 14  4  0
 10 32  4  0
 11 20  4  0
 11 29  4  0
 11 30  1  0
 12 21  1  0
 12 31  4  0
 13 14  4  0
 13 24  4  0
 14 16  4  0
 15 34  1  0
 18 21  4  0
 19 32  1  0
 22 27  4  0
 22 29  4  0
 23 31  4  0
 25 32  4  0
 26 33  4  0
 30 33  1  0
M  END
$$$$

 Created by Python create_sdf_string function

 34 87  0  0  0  0  0  0  0  0999 V2000
   10.4889   -2.9599   22.3404 C   0  0  0  0  0  0  0  0  0  0  0  0
    8.3685   -5.3803   16.2745 C   0  0  0  0  0  0  0  0  0  0  0  0
   11.1641   -4.4909   22.5624 C   0  0  0  0  0  0  0  0  0  0  0  0
    1.0535   -9.3434   17.8992 O   0  0  0  0  0  0  0  0  0  0  0  0
    1.9248  -12.5016   22.5221 C   0  0  0  0  0  0  0  0  0  0  0  0
   10.7169   -2.7814   18.2958 C   0  0  0  0  0  0  0  0  0  0  0  0
    9.9962   -5.6594   20.0986 C   0  0  0  0  0  0  0  0  0  0  0  0
    1.2122  -12.2897   20.5304 C   0  0  0  0  0  0  0  0  0  0  0  0
    2.4373   -9.6180   17.7317 O   0  0  0  0  0  0  0  0  0  0  0  0
    9.8422   -4.0927   17.3261 C   0  0  0  0  0  0  0  0  0  0  0  0
    9.2965   -4.9400   17.8800 C   0  0  0  0  0  0  0  0  0  0  0  0
    5.0083   -7.4555   15.0489 I   0  0  0  0  0  0  0  0  0  0  0  0
    9.1865   -5.1601   18.9536 C   0  0  0  0  0  0  0  0  0  0  0  0
    7.5673   -8.0220   17.6188 S   0  0  0  0  0  0  0  0  0  0  0  0
   11.3120   -3.8040   21.9691 C   0  0  0  0  0  0  0  0  0  0  0  0
    1.6875  -13.5638   21.3559 Br  0  0  0  0  0  0  0  0  0  0  0  0
    4.4742   -9.2403   16.6166 S   0  0  0  0  0  0  0  0  0  0  0  0
    9.5811   -4.6915   15.8326 F   0  0  0  0  0  0  0  0  0  0  0  0
   10.6938   -2.9613   19.1270 C   0  0  0  0  0  0  0  0  0  0  0  0
    4.2944  -10.6556   19.1044 N   0  0  0  0  0  0  0  0  0  0  0  0
    0.4455  -12.2752   22.9215 O   0  0  0  0  0  0  0  0  0  0  0  0
    8.4349   -7.0737   17.0901 F   0  0  0  0  0  0  0  0  0  0  0  0
   -0.0424  -11.1331   20.8342 C   0  0  0  0  0  0  0  0  0  0  0  0
    1.7289  -11.9723   18.9175 C   0  0  0  0  0  0  0  0  0  0  0  0
   10.4581   -4.3370   20.1141 C   0  0  0  0  0  0  0  0  0  0  0  0
    2.5044  -11.7171   18.0085 C   0  0  0  0  0  0  0  0  0  0  0  0
    5.4207   -8.1034   15.8753 O   0  0  0  0  0  0  0  0  0  0  0  0
    7.4446   -8.6737   16.1607 He  0  0  0  0  0  0  0  0  0  0  0  0
    7.3971   -8.3151   19.4498 He  0  0  0  0  0  0  0  0  0  0  0  0
    8.6239   -5.5166   14.8965 He  0  0  0  0  0  0  0  0  0  0  0  0
    4.5941   -9.1057   17.1761 He  0  0  0  0  0  0  0  0  0  0  0  0
   -0.2723  -11.5390   22.0602 He  0  0  0  0  0  0  0  0  0  0  0  0
    1.3623   -9.9502   17.0008 He  0  0  0  0  0  0  0  0  0  0  0  0
    2.8998   -8.8007   16.9398 He  0  0  0  0  0  0  0  0  0  0  0  0
  1  2  3  0
  1 15  1  0
  1 17  3  0
  1 22  4  0
  2  5  4  0
  2 18  4  0
  2 20  1  0
  3  4  2  0
  3 12  3  0
  3 16  1  0
  3 17  4  0
  3 20  3  0
  3 22  4  0
  4 11  3  0
  4 12  2  0
  4 15  1  0
  4 21  4  0
  4 23  4  0
  4 25  2  0
  4 26  4  0
  4 27  4  0
  5  7  3  0
  5 13  3  0
  5 16  4  0
  5 18  1  0
  5 21  3  0
  6  7  2  0
  6 10  2  0
  6 12  1  0
  6 16  2  0
  6 17  3  0
  6 20  3  0
  6 21  3  0
  7 11  4  0
  7 14  4  0
  7 15  4  0
  7 20  1  0
  7 25  4  0
  8 15  3  0
  8 16  4  0
  8 18  4  0
  8 20  4  0
  8 21  3  0
  8 22  1  0
  8 23  4  0
  8 24  1  0
  9 10  3  0
  9 15  3  0
  9 17  1  0
  9 21  3  0
  9 25  2  0
 10 11  4  0
 10 12  4  0
 10 16  2  0
 10 18  3  0
 11 12  3  0
 11 13  4  0
 11 20  4  0
 11 23  2  0
 12 22  4  0
 12 24  1  0
 12 26  4  0
 13 19  2  0
 13 22  1  0
 13 26  1  0
 13 27  2  0
 14 19  2  0
 15 17  2  0
 15 18  4  0
 15 22  4  0
 15 25  1  0
 16 20  3  0
 17 18  1  0
 17 20  1  0
 17 21  3  0
 17 26  1  0
 18 20  4  0
 19 20  2  0
 19 25  4  0
 19 27  4  0
 20 22  3  0
 20 27  1  0
 21 24  3  0
 21 25  4  0
 22 24  3  0
 22 27  3  0
 24 26  1  0
M  END
$$$$

 Created by Python create_sdf_string function

 34 35  0  0  0  0  0  0  0  0999 V2000
   10.4261   -2.7942   22.2643 C   0  0  0  0  0  0  0  0  0  0  0  0
    8.6876   -5.2757   15.9517 C   0  0  0  0  0  0  0  0  0  0  0  0
   11.1585   -4.9661   22.4255 C   0  0  0  0  0  0  0  0  0  0  0  0
    1.2047  -10.4486   17.6365 N   0  0  0  0  0  0  0  0  0  0  0  0
    1.4581  -12.8982   22.5742 C   0  0  0  0  0  0  0  0  0  0  0  0
    7.0580   -8.1671   15.7088 C   0  0  0  0  0  0  0  0  0  0  0  0
   10.7348   -3.0439   17.9737 C   0  0  0  0  0  0  0  0  0  0  0  0
    7.2180   -8.1744   18.1811 C   0  0  0  0  0  0  0  0  0  0  0  0
    7.9623   -6.3064   15.6746 C   0  0  0  0  0  0  0  0  0  0  0  0
   10.0710   -5.1832   19.5883 C   0  0  0  0  0  0  0  0  0  0  0  0
    1.2664  -12.1470   20.3634 C   0  0  0  0  0  0  0  0  0  0  0  0
    3.2116   -9.5321   17.1184 C   0  0  0  0  0  0  0  0  0  0  0  0
   10.0243   -4.1187   17.4289 C   0  0  0  0  0  0  0  0  0  0  0  0
    9.6870   -5.2164   18.3243 C   0  0  0  0  0  0  0  0  0  0  0  0
    5.3218   -7.8320   15.8006 C   0  0  0  0  0  0  0  0  0  0  0  0
    8.8917   -6.2569   17.7982 C   0  0  0  0  0  0  0  0  0  0  0  0
    7.3989   -8.2478   17.7298 C   0  0  0  0  0  0  0  0  0  0  0  0
    4.5098   -9.1738   17.1222 C   0  0  0  0  0  0  0  0  0  0  0  0
   10.9461   -3.9312   21.6561 C   0  0  0  0  0  0  0  0  0  0  0  0
    1.9317  -12.9159   21.3215 C   0  0  0  0  0  0  0  0  0  0  0  0
    4.6012   -9.2082   16.9926 C   0  0  0  0  0  0  0  0  0  0  0  0
   -0.2296  -11.3599   22.1198 C   0  0  0  0  0  0  0  0  0  0  0  0
    1.3436   -9.7033   17.0825 C   0  0  0  0  0  0  0  0  0  0  0  0
    9.5222   -4.1985   16.2624 N   0  0  0  0  0  0  0  0  0  0  0  0
   11.0174   -2.9696   19.3608 C   0  0  0  0  0  0  0  0  0  0  0  0
    3.6659  -10.9355   18.4890 N   0  0  0  0  0  0  0  0  0  0  0  0
    0.4755  -12.1262   22.9540 C   0  0  0  0  0  0  0  0  0  0  0  0
    8.0739   -7.0298   17.1949 C   0  0  0  0  0  0  0  0  0  0  0  0
    0.1325  -11.3547   20.7692 C   0  0  0  0  0  0  0  0  0  0  0  0
    1.7241  -12.3038   18.9812 C   0  0  0  0  0  0  0  0  0  0  0  0
    2.4874   -9.1940   16.7977 C   0  0  0  0  0  0  0  0  0  0  0  0
   10.7000   -4.0345   20.2167 C   0  0  0  0  0  0  0  0  0  0  0  0
    2.3248  -11.2029   18.4646 C   0  0  0  0  0  0  0  0  0  0  0  0
    5.8736   -8.1912   15.9773 C   0  0  0  0  0  0  0  0  0  0  0  0
  1 19  1  0
  2  9  4  0
  2 24  4  0
  3 19  1  0
  4 23  4  0
  4 33  4  0
  5 20  4  0
  5 27  4  0
  6  9  4  0
  6 34  4  0
  7 13  4  0
  7 25  4  0
  8 17  4  0
  9 28  4  0
 10 14  4  0
 10 32  4  0
 11 20  4  0
 11 29  4  0
 11 30  1  0
 12 18  4  0
 12 31  4  0
 13 14  4  0
 13 24  4  0
 14 16  4  0
 15 34  1  0
 16 28  4  0
 17 28  4  0
 18 21  4  0
 19 32  1  0
 22 27  4  0
 22 29  4  0
 23 31  4  0
 25 32  4  0
 26 33  4  0
 30 33  1  0
M  END
$$$$

 Created by Python create_sdf_string function

 34 83  0  0  0  0  0  0  0  0999 V2000
   10.0069   -2.5315   22.2496 N   0  0  0  0  0  0  0  0  0  0  0  0
    8.7886   -5.1114   15.8272 C   0  0  0  0  0  0  0  0  0  0  0  0
    1.4938  -13.3083   22.5922 C   0  0  0  0  0  0  0  0  0  0  0  0
    5.8027   -9.4252   16.1065 Cl  0  0  0  0  0  0  0  0  0  0  0  0
   10.5916   -2.8668   17.9457 F   0  0  0  0  0  0  0  0  0  0  0  0
    9.9112   -4.7446   19.4665 C   0  0  0  0  0  0  0  0  0  0  0  0
    2.8746  -10.9477   17.5344 C   0  0  0  0  0  0  0  0  0  0  0  0
    9.8920   -3.5576   17.2400 O   0  0  0  0  0  0  0  0  0  0  0  0
    9.7195   -5.4667   18.5728 C   0  0  0  0  0  0  0  0  0  0  0  0
   10.5877   -7.0505   18.8115 F   0  0  0  0  0  0  0  0  0  0  0  0
    7.4640   -8.3743   18.0934 C   0  0  0  0  0  0  0  0  0  0  0  0
   11.2179   -4.4299   21.8001 C   0  0  0  0  0  0  0  0  0  0  0  0
    1.5267  -12.8706   21.6513 B   0  0  0  0  0  0  0  0  0  0  0  0
    4.0541   -9.4706   16.7951 O   0  0  0  0  0  0  0  0  0  0  0  0
    0.0835  -11.4143   21.9658 C   0  0  0  0  0  0  0  0  0  0  0  0
    1.4956   -9.6254   17.5087 C   0  0  0  0  0  0  0  0  0  0  0  0
    9.7974   -4.4614   16.4774 N   0  0  0  0  0  0  0  0  0  0  0  0
   11.1743   -2.9525   19.0616 Cl  0  0  0  0  0  0  0  0  0  0  0  0
    2.1961  -10.6911   17.9268 C   0  0  0  0  0  0  0  0  0  0  0  0
    0.1174  -11.7863   22.8953 C   0  0  0  0  0  0  0  0  0  0  0  0
    7.0806   -8.1542   17.6462 C   0  0  0  0  0  0  0  0  0  0  0  0
    0.4322  -11.1299   20.5720 I   0  0  0  0  0  0  0  0  0  0  0  0
    1.2791  -12.4726   18.8814 C   0  0  0  0  0  0  0  0  0  0  0  0
    0.3145   -9.0170   17.2525 C   0  0  0  0  0  0  0  0  0  0  0  0
   10.5489   -4.1152   20.3961 C   0  0  0  0  0  0  0  0  0  0  0  0
    2.5015  -11.0296   18.4679 C   0  0  0  0  0  0  0  0  0  0  0  0
    5.8751   -8.0818   15.6661 F   0  0  0  0  0  0  0  0  0  0  0  0
   11.0223   -5.2763   21.9916 He  0  0  0  0  0  0  0  0  0  0  0  0
    0.9353  -10.9269   17.2254 He  0  0  0  0  0  0  0  0  0  0  0  0
    7.2989   -8.8686   19.3139 He  0  0  0  0  0  0  0  0  0  0  0  0
    7.1495   -6.7615   16.9309 He  0  0  0  0  0  0  0  0  0  0  0  0
    1.2739  -11.5743   20.5027 He  0  0  0  0  0  0  0  0  0  0  0  0
    4.6618   -7.9368   16.6128 He  0  0  0  0  0  0  0  0  0  0  0  0
    5.7862  -10.1840   15.5408 He  0  0  0  0  0  0  0  0  0  0  0  0
  1  6  3  0
  1 12  1  0
  1 20  3  0
  2 17  4  0
  2 19  4  0
  2 22  1  0
  3 10  4  0
  3 12  3  0
  3 13  4  0
  3 19  1  0
  3 24  3  0
  4  5  3  0
  4  8  1  0
  4 12  3  0
  4 13  2  0
  4 15  4  0
  4 17  2  0
  4 18  4  0
  4 20  1  0
  4 22  2  0
  4 24  1  0
  4 27  4  0
  5  7  2  0
  5  8  4  0
  5 11  3  0
  5 15  4  0
  5 18  4  0
  5 21  2  0
  5 23  4  0
  5 26  4  0
  6  9  4  0
  6 12  4  0
  6 21  4  0
  6 25  4  0
  7  9  3  0
  7 17  1  0
  7 24  3  0
  8  9  4  0
  8 10  1  0
  8 14  3  0
  8 17  4  0
  9 14  1  0
 10 11  1  0
 10 13  4  0
 10 17  4  0
 10 20  3  0
 10 24  1  0
 10 27  4  0
 11 21  4  0
 11 24  2  0
 12 14  4  0
 12 21  4  0
 12 25  1  0
 13 15  3  0
 13 16  4  0
 13 19  2  0
 13 20  4  0
 13 24  1  0
 14 18  2  0
 14 19  2  0
 14 26  2  0
 15 17  4  0
 15 19  1  0
 15 20  4  0
 15 22  4  0
 15 24  2  0
 15 26  3  0
 16 24  4  0
 16 25  1  0
 17 19  2  0
 17 20  1  0
 17 24  4  0
 18 19  1  0
 18 25  4  0
 18 26  3  0
 19 21  3  0
 19 23  2  0
 19 24  4  0
 19 25  2  0
 19 27  1  0
 23 24  4  0
 23 26  1  0
 24 25  2  0
M  END
$$$$

 Created by Python create_sdf_string function

 34 35  0  0  0  0  0  0  0  0999 V2000
   10.3996   -2.8805   22.2222 N   0  0  0  0  0  0  0  0  0  0  0  0
    8.5430   -5.3653   16.0955 C   0  0  0  0  0  0  0  0  0  0  0  0
   11.1025   -5.1126   22.3099 O   0  0  0  0  0  0  0  0  0  0  0  0
    0.6039  -10.9322   17.5957 N   0  0  0  0  0  0  0  0  0  0  0  0
    1.2071  -12.9288   22.6664 C   0  0  0  0  0  0  0  0  0  0  0  0
    6.0797   -9.2849   16.1420 C   0  0  0  0  0  0  0  0  0  0  0  0
   10.6879   -3.1009   17.9529 C   0  0  0  0  0  0  0  0  0  0  0  0
    7.6265   -8.1434   18.3814 C   0  0  0  0  0  0  0  0  0  0  0  0
    8.1201   -6.3647   16.6899 C   0  0  0  0  0  0  0  0  0  0  0  0
   10.1310   -5.2542   19.6204 C   0  0  0  0  0  0  0  0  0  0  0  0
    1.2430  -12.0759   20.4932 C   0  0  0  0  0  0  0  0  0  0  0  0
    2.9221  -10.1441   17.5435 C   0  0  0  0  0  0  0  0  0  0  0  0
    9.9990   -4.2303   17.5091 C   0  0  0  0  0  0  0  0  0  0  0  0
    9.7907   -5.3004   18.3606 C   0  0  0  0  0  0  0  0  0  0  0  0
    4.9640   -8.0740   16.9097 C   0  0  0  0  0  0  0  0  0  0  0  0
    9.0571   -6.5351   17.8650 C   0  0  0  0  0  0  0  0  0  0  0  0
    7.7572   -8.1899   18.0630 C   0  0  0  0  0  0  0  0  0  0  0  0
    5.5322   -9.8964   16.2983 C   0  0  0  0  0  0  0  0  0  0  0  0
   10.7908   -4.0056   21.6140 C   0  0  0  0  0  0  0  0  0  0  0  0
    1.7017  -12.9437   21.4150 C   0  0  0  0  0  0  0  0  0  0  0  0
    4.0889   -9.1164   16.8710 C   0  0  0  0  0  0  0  0  0  0  0  0
   -0.1598  -11.1294   22.1653 C   0  0  0  0  0  0  0  0  0  0  0  0
    1.3182   -9.2555   17.0027 C   0  0  0  0  0  0  0  0  0  0  0  0
    9.4328   -4.4201   16.3111 N   0  0  0  0  0  0  0  0  0  0  0  0
   10.9282   -2.9548   19.3679 C   0  0  0  0  0  0  0  0  0  0  0  0
    2.5842  -10.4883   17.8351 C   0  0  0  0  0  0  0  0  0  0  0  0
    0.3234  -12.0768   23.0058 C   0  0  0  0  0  0  0  0  0  0  0  0
    7.2550   -7.4507   16.9762 C   0  0  0  0  0  0  0  0  0  0  0  0
    0.2904  -11.1081   20.8496 C   0  0  0  0  0  0  0  0  0  0  0  0
    1.8156  -12.2558   19.0953 C   0  0  0  0  0  0  0  0  0  0  0  0
    0.7250   -9.6384   17.0400 C   0  0  0  0  0  0  0  0  0  0  0  0
   10.6253   -4.0562   20.1573 C   0  0  0  0  0  0  0  0  0  0  0  0
    2.2595  -11.2256   18.4372 C   0  0  0  0  0  0  0  0  0  0  0  0
    6.0121   -8.0569   16.3574 C   0  0  0  0  0  0  0  0  0  0  0  0
  1 19  1  0
  2  9  4  0
  2 24  4  0
  3 19  2  0
  4 31  4  0
  5 20  4  0
  5 27  4  0
  6 18  4  0
  6 34  4  0
  7 13  4  0
  7 25  4  0
  8 17  4  0
  9 16  4  0
  9 28  1  0
 10 14  4  0
 10 32  4  0
 11 20  4  0
 11 29  4  0
 11 30  1  0
 12 26  4  0
 13 14  4  0
 13 24  4  0
 14 16  4  0
 15 21  4  0
 15 34  4  0
 17 28  4  0
 18 21  4  0
 19 32  1  0
 22 27  4  0
 22 29  4  0
 23 31  4  0
 25 32  4  0
 26 33  4  0
 28 34  4  0
 30 33  1  0
M  END
$$$$

 Created by Python create_sdf_string function

 34 78  0  0  0  0  0  0  0  0999 V2000
   10.5727   -2.9365   22.0166 N   0  0  0  0  0  0  0  0  0  0  0  0
    8.3192   -5.1381   15.8985 C   0  0  0  0  0  0  0  0  0  0  0  0
   11.4078   -4.7969   22.8475 B   0  0  0  0  0  0  0  0  0  0  0  0
    0.5610  -11.0525   17.9574 P   0  0  0  0  0  0  0  0  0  0  0  0
    1.5436  -13.0592   22.2798 C   0  0  0  0  0  0  0  0  0  0  0  0
    6.3504   -8.7964   16.1138 B   0  0  0  0  0  0  0  0  0  0  0  0
    7.2288   -8.8133   18.7990 C   0  0  0  0  0  0  0  0  0  0  0  0
    7.8101   -7.1650   16.2949 N   0  0  0  0  0  0  0  0  0  0  0  0
    1.1237  -12.3763   20.0741 C   0  0  0  0  0  0  0  0  0  0  0  0
    3.5657   -9.3666   17.9475 Br  0  0  0  0  0  0  0  0  0  0  0  0
   10.2719   -4.5051   17.4412 C   0  0  0  0  0  0  0  0  0  0  0  0
    9.7686   -4.9892   18.2317 C   0  0  0  0  0  0  0  0  0  0  0  0
    4.1896   -6.6960   17.1536 Se  0  0  0  0  0  0  0  0  0  0  0  0
    8.9808   -6.2326   16.2022 C   0  0  0  0  0  0  0  0  0  0  0  0
    7.9819   -7.9923   18.3016 O   0  0  0  0  0  0  0  0  0  0  0  0
   10.6801   -3.6392   21.4488 C   0  0  0  0  0  0  0  0  0  0  0  0
    1.6329  -13.0782   21.2363 C   0  0  0  0  0  0  0  0  0  0  0  0
    1.3066   -9.2547   17.1556 C   0  0  0  0  0  0  0  0  0  0  0  0
    9.5644   -4.6186   16.2582 N   0  0  0  0  0  0  0  0  0  0  0  0
   10.8636   -2.8968   19.4775 C   0  0  0  0  0  0  0  0  0  0  0  0
    1.3189  -10.2735   18.1056 N   0  0  0  0  0  0  0  0  0  0  0  0
   -0.1647  -11.1593   21.3345 C   0  0  0  0  0  0  0  0  0  0  0  0
    2.0887  -12.4454   18.8792 C   0  0  0  0  0  0  0  0  0  0  0  0
    1.2444   -8.9151   15.6593 C   0  0  0  0  0  0  0  0  0  0  0  0
    9.9756   -3.7191   20.7333 C   0  0  0  0  0  0  0  0  0  0  0  0
    2.3147  -11.1389   18.2175 O   0  0  0  0  0  0  0  0  0  0  0  0
   10.5111   -3.1122   18.1831 He  0  0  0  0  0  0  0  0  0  0  0  0
    9.9010   -4.9783   19.4856 He  0  0  0  0  0  0  0  0  0  0  0  0
    5.7527   -9.2933   16.3588 He  0  0  0  0  0  0  0  0  0  0  0  0
    3.1767   -9.9422   16.6889 He  0  0  0  0  0  0  0  0  0  0  0  0
   -0.2841  -10.8458   22.3073 He  0  0  0  0  0  0  0  0  0  0  0  0
    0.4977  -12.2614   22.8485 He  0  0  0  0  0  0  0  0  0  0  0  0
    6.6914   -7.4774   17.6789 He  0  0  0  0  0  0  0  0  0  0  0  0
    6.0761   -7.7874   16.2030 He  0  0  0  0  0  0  0  0  0  0  0  0
  1  3  4  0
  1  6  1  0
  1  9  4  0
  1 10  1  0
  1 13  2  0
  1 14  4  0
  1 16  1  0
  1 21  4  0
  2  4  4  0
  2  5  2  0
  2  6  1  0
  2 19  4  0
  2 20  1  0
  2 21  3  0
  2 24  1  0
  3  5  1  0
  3 14  1  0
  3 17  2  0
  4  8  2  0
  4 25  1  0
  4 26  1  0
  5  8  2  0
  5 13  4  0
  5 17  4  0
  5 22  2  0
  6  7  4  0
  6 16  1  0
  6 19  4  0
  6 25  4  0
  6 26  3  0
  7  9  2  0
  7 13  3  0
  7 15  4  0
  7 17  2  0
  7 20  3  0
  8  9  3  0
  8 11  1  0
  8 13  2  0
  8 14  2  0
  8 15  1  0
  8 20  4  0
  8 22  3  0
  8 24  2  0
  9 17  4  0
  9 19  4  0
  9 21  4  0
  9 22  4  0
  9 23  1  0
 10 13  1  0
 10 15  3  0
 10 17  4  0
 10 21  4  0
 10 23  3  0
 11 12  4  0
 11 15  1  0
 11 19  4  0
 12 14  4  0
 12 15  4  0
 12 20  4  0
 13 24  2  0
 13 26  2  0
 14 16  3  0
 14 17  1  0
 14 21  2  0
 14 26  1  0
 15 21  1  0
 15 22  2  0
 16 22  3  0
 16 25  1  0
 17 21  4  0
 18 24  4  0
 19 24  4  0
 20 21  2  0
 20 24  4  0
 20 25  3  0
 22 23  1  0
 22 24  4  0
 23 26  1  0
M  END
$$$$

 Created by Python create_sdf_string function

 34 29  0  0  0  0  0  0  0  0999 V2000
   10.5402   -2.6804   22.1513 N   0  0  0  0  0  0  0  0  0  0  0  0
    8.6832   -5.0877   15.7901 C   0  0  0  0  0  0  0  0  0  0  0  0
   10.9500   -4.9146   22.3917 O   0  0  0  0  0  0  0  0  0  0  0  0
    0.7230  -10.6278   17.6698 N   0  0  0  0  0  0  0  0  0  0  0  0
    1.3098  -13.0002   22.5090 C   0  0  0  0  0  0  0  0  0  0  0  0
    6.1296   -8.5291   16.6341 C   0  0  0  0  0  0  0  0  0  0  0  0
   10.7410   -3.1601   17.9266 C   0  0  0  0  0  0  0  0  0  0  0  0
    6.9715   -8.3621   18.1565 C   0  0  0  0  0  0  0  0  0  0  0  0
    7.9799   -6.7337   16.6850 C   0  0  0  0  0  0  0  0  0  0  0  0
    9.9603   -5.1940   19.6734 C   0  0  0  0  0  0  0  0  0  0  0  0
    1.2130  -12.1611   20.3297 C   0  0  0  0  0  0  0  0  0  0  0  0
    3.3540   -9.4295   17.1380 C   0  0  0  0  0  0  0  0  0  0  0  0
    9.9809   -4.2474   17.4719 C   0  0  0  0  0  0  0  0  0  0  0  0
    9.5896   -5.2673   18.2516 C   0  0  0  0  0  0  0  0  0  0  0  0
    4.1170   -7.8136   16.6256 C   0  0  0  0  0  0  0  0  0  0  0  0
    8.6820   -6.2791   17.3730 C   0  0  0  0  0  0  0  0  0  0  0  0
    8.3383   -7.9094   18.3120 O   0  0  0  0  0  0  0  0  0  0  0  0
    5.3007   -9.0644   16.6012 C   0  0  0  0  0  0  0  0  0  0  0  0
   10.6833   -3.9379   21.6688 C   0  0  0  0  0  0  0  0  0  0  0  0
    1.7368  -13.1024   21.1822 C   0  0  0  0  0  0  0  0  0  0  0  0
    3.2899   -9.7614   17.3042 C   0  0  0  0  0  0  0  0  0  0  0  0
   -0.1217  -11.1876   22.1272 C   0  0  0  0  0  0  0  0  0  0  0  0
    1.1937   -9.2371   16.6407 C   0  0  0  0  0  0  0  0  0  0  0  0
    9.5300   -4.3022   16.1826 N   0  0  0  0  0  0  0  0  0  0  0  0
   10.9069   -3.0275   19.3546 C   0  0  0  0  0  0  0  0  0  0  0  0
    1.6307  -10.5106   17.7994 N   0  0  0  0  0  0  0  0  0  0  0  0
    0.4626  -12.0640   22.9374 C   0  0  0  0  0  0  0  0  0  0  0  0
    7.0494   -7.6042   17.2128 C   0  0  0  0  0  0  0  0  0  0  0  0
    0.2286  -11.2057   20.8334 C   0  0  0  0  0  0  0  0  0  0  0  0
    1.7041  -12.3374   18.8947 C   0  0  0  0  0  0  0  0  0  0  0  0
    1.8084   -8.5175   16.4015 C   0  0  0  0  0  0  0  0  0  0  0  0
   10.5037   -4.0541   20.1938 C   0  0  0  0  0  0  0  0  0  0  0  0
    2.1797  -11.3221   18.4150 O   0  0  0  0  0  0  0  0  0  0  0  0
    6.0726   -7.8756   15.8699 C   0  0  0  0  0  0  0  0  0  0  0  0
  1 19  1  0
  2 24  4  0
  3 19  2  0
  4 23  4  0
  4 26  4  0
  5 20  4  0
  5 27  4  0
  6 18  4  0
  7 13  4  0
  7 25  4  0
  8 17  4  0
  8 28  4  0
  9 16  4  0
 10 14  4  0
 10 32  4  0
 11 20  4  0
 11 29  4  0
 11 30  1  0
 12 21  4  0
 13 14  4  0
 13 24  4  0
 14 16  4  0
 19 32  1  0
 22 27  4  0
 22 29  4  0
 23 31  4  0
 25 32  4  0
 26 33  4  0
 30 33  1  0
M  END
$$$$

 Created by Python create_sdf_string function

 34 85  0  0  0  0  0  0  0  0999 V2000
   10.6794   -2.9466   22.3120 N   0  0  0  0  0  0  0  0  0  0  0  0
    8.3717   -4.7885   15.9277 C   0  0  0  0  0  0  0  0  0  0  0  0
   10.8475   -4.5956   22.3146 O   0  0  0  0  0  0  0  0  0  0  0  0
    1.3460  -13.0921   22.2722 C   0  0  0  0  0  0  0  0  0  0  0  0
   11.0342   -3.0908   17.8758 C   0  0  0  0  0  0  0  0  0  0  0  0
    7.0105   -9.2099   18.5917 C   0  0  0  0  0  0  0  0  0  0  0  0
    8.9391   -6.2050   18.0288 I   0  0  0  0  0  0  0  0  0  0  0  0
   10.2454   -4.8627   20.4826 C   0  0  0  0  0  0  0  0  0  0  0  0
    1.2336  -12.4332   20.5883 C   0  0  0  0  0  0  0  0  0  0  0  0
    2.7840   -8.8791   17.9796 N   0  0  0  0  0  0  0  0  0  0  0  0
    9.7803   -4.2281   17.5538 C   0  0  0  0  0  0  0  0  0  0  0  0
    8.1515   -8.1592   17.7597 O   0  0  0  0  0  0  0  0  0  0  0  0
   10.9925   -4.3077   21.3392 C   0  0  0  0  0  0  0  0  0  0  0  0
    1.9057  -13.2258   21.2114 Cl  0  0  0  0  0  0  0  0  0  0  0  0
    3.9679   -9.2450   16.4305 C   0  0  0  0  0  0  0  0  0  0  0  0
   -0.0142  -10.9356   22.2492 C   0  0  0  0  0  0  0  0  0  0  0  0
    1.1567   -9.0716   16.7943 C   0  0  0  0  0  0  0  0  0  0  0  0
    9.4550   -4.2184   16.0755 N   0  0  0  0  0  0  0  0  0  0  0  0
   10.7254   -3.2057   19.5940 C   0  0  0  0  0  0  0  0  0  0  0  0
    0.3031  -12.0964   22.9277 C   0  0  0  0  0  0  0  0  0  0  0  0
    7.6447   -8.3637   16.8495 P   0  0  0  0  0  0  0  0  0  0  0  0
    0.2517  -11.2897   21.3554 C   0  0  0  0  0  0  0  0  0  0  0  0
    1.9872  -12.4092   19.1839 C   0  0  0  0  0  0  0  0  0  0  0  0
    0.2593   -8.3213   15.3133 Cl  0  0  0  0  0  0  0  0  0  0  0  0
   11.1016   -4.1693   20.0420 C   0  0  0  0  0  0  0  0  0  0  0  0
    2.0379  -11.6345   18.6991 O   0  0  0  0  0  0  0  0  0  0  0  0
    5.6494   -7.9906   16.0070 C   0  0  0  0  0  0  0  0  0  0  0  0
    0.3016  -10.2168   17.8585 He  0  0  0  0  0  0  0  0  0  0  0  0
    5.6835   -9.1145   16.3412 He  0  0  0  0  0  0  0  0  0  0  0  0
    9.3690   -5.6345   18.0617 He  0  0  0  0  0  0  0  0  0  0  0  0
    4.1851   -6.4036   15.7486 He  0  0  0  0  0  0  0  0  0  0  0  0
    9.8220   -6.0702   17.6815 He  0  0  0  0  0  0  0  0  0  0  0  0
    4.5891   -9.0844   18.1420 He  0  0  0  0  0  0  0  0  0  0  0  0
    1.5527  -11.1744   17.0870 He  0  0  0  0  0  0  0  0  0  0  0  0
  1 13  1  0
  1 15  1  0
  1 19  3  0
  1 20  1  0
  2  7  4  0
  2  8  3  0
  2 18  4  0
  2 20  2  0
  2 21  1  0
  3  7  4  0
  3  9  2  0
  3 10  4  0
  3 13  2  0
  3 15  2  0
  3 24  1  0
  3 25  2  0
  4  8  4  0
  4 12  2  0
  4 13  1  0
  4 14  4  0
  4 15  4  0
  4 20  4  0
  4 21  2  0
  4 23  2  0
  4 25  4  0
  5  6  1  0
  5 11  4  0
  5 19  4  0
  5 21  1  0
  5 24  3  0
  6 16  2  0
  6 18  3  0
  6 20  4  0
  6 21  4  0
  6 22  2  0
  7  9  1  0
  7 11  3  0
  7 16  4  0
  7 24  4  0
  7 25  4  0
  7 26  2  0
  8 12  2  0
  8 16  1  0
  8 25  4  0
  9 14  4  0
  9 22  4  0
  9 24  2  0
 10 11  4  0
 10 13  1  0
 10 20  4  0
 10 21  3  0
 10 24  2  0
 11 15  1  0
 11 18  4  0
 11 20  4  0
 12 14  3  0
 12 17  2  0
 12 19  2  0
 12 22  3  0
 13 14  1  0
 13 20  1  0
 14 15  2  0
 15 17  4  0
 15 22  4  0
 15 27  1  0
 16 20  4  0
 16 22  4  0
 16 25  2  0
 17 19  4  0
 17 21  4  0
 18 21  1  0
 18 23  1  0
 18 27  2  0
 19 23  2  0
 19 24  1  0
 19 25  4  0
 20 21  2  0
 21 24  3  0
 21 25  4  0
 22 26  4  0
 22 27  3  0
 23 24  3  0
 23 26  1  0
 25 26  1  0
 25 27  4  0
M  END
$$$$

 Created by Python create_sdf_string function

 34 35  0  0  0  0  0  0  0  0999 V2000
   10.7520   -2.8162   22.1657 N   0  0  0  0  0  0  0  0  0  0  0  0
    8.6009   -5.1363   16.1009 C   0  0  0  0  0  0  0  0  0  0  0  0
   10.9736   -5.0595   22.3633 O   0  0  0  0  0  0  0  0  0  0  0  0
    0.5658  -10.4380   17.6174 N   0  0  0  0  0  0  0  0  0  0  0  0
    1.1854  -13.1095   22.6561 C   0  0  0  0  0  0  0  0  0  0  0  0
    5.9119   -9.1877   17.0908 C   0  0  0  0  0  0  0  0  0  0  0  0
   10.7682   -3.1392   17.9538 C   0  0  0  0  0  0  0  0  0  0  0  0
    6.7142   -8.7625   17.6977 C   0  0  0  0  0  0  0  0  0  0  0  0
    8.6590   -6.1879   17.1106 C   0  0  0  0  0  0  0  0  0  0  0  0
   10.1981   -5.2776   19.5661 C   0  0  0  0  0  0  0  0  0  0  0  0
    1.2423  -12.1623   20.5221 C   0  0  0  0  0  0  0  0  0  0  0  0
    3.0625   -9.9663   17.6292 N   0  0  0  0  0  0  0  0  0  0  0  0
   10.0006   -4.2006   17.4797 C   0  0  0  0  0  0  0  0  0  0  0  0
    9.6943   -5.2396   18.1918 C   0  0  0  0  0  0  0  0  0  0  0  0
    4.7605   -7.5616   15.9559 C   0  0  0  0  0  0  0  0  0  0  0  0
    8.5358   -6.7920   17.2550 C   0  0  0  0  0  0  0  0  0  0  0  0
    8.6473   -7.9268   17.8167 C   0  0  0  0  0  0  0  0  0  0  0  0
    4.4231   -8.8067   16.8715 C   0  0  0  0  0  0  0  0  0  0  0  0
   10.8681   -4.0270   21.6236 C   0  0  0  0  0  0  0  0  0  0  0  0
    1.6923  -13.1800   21.3703 C   0  0  0  0  0  0  0  0  0  0  0  0
    3.5207   -9.1593   16.8644 C   0  0  0  0  0  0  0  0  0  0  0  0
   -0.0775  -11.1721   22.2848 C   0  0  0  0  0  0  0  0  0  0  0  0
    1.4962   -9.3281   16.6267 C   0  0  0  0  0  0  0  0  0  0  0  0
    9.3448   -4.1536   16.2905 N   0  0  0  0  0  0  0  0  0  0  0  0
   11.0733   -3.0604   19.4009 C   0  0  0  0  0  0  0  0  0  0  0  0
    1.5441  -10.4786   17.7801 C   0  0  0  0  0  0  0  0  0  0  0  0
    0.4069  -12.1732   23.0808 C   0  0  0  0  0  0  0  0  0  0  0  0
    7.1950   -7.9742   16.8394 C   0  0  0  0  0  0  0  0  0  0  0  0
    0.3435  -11.1664   21.0061 C   0  0  0  0  0  0  0  0  0  0  0  0
    1.7460  -12.2676   19.0267 C   0  0  0  0  0  0  0  0  0  0  0  0
    0.9309   -8.6955   15.8517 C   0  0  0  0  0  0  0  0  0  0  0  0
   10.7325   -4.0921   20.1790 C   0  0  0  0  0  0  0  0  0  0  0  0
    1.9337  -11.2492   18.5657 C   0  0  0  0  0  0  0  0  0  0  0  0
    5.9392   -7.4871   15.9828 C   0  0  0  0  0  0  0  0  0  0  0  0
  1 19  1  0
  2  9  4  0
  2 24  4  0
  3 19  2  0
  4 26  4  0
  5 20  4  0
  5 27  4  0
  6  8  4  0
  7 13  4  0
  7 25  4  0
  8 28  4  0
  9 14  4  0
  9 16  4  0
 10 14  4  0
 10 32  4  0
 11 20  4  0
 11 29  4  0
 11 30  1  0
 12 21  4  0
 13 14  4  0
 13 24  4  0
 15 18  4  0
 15 34  4  0
 16 17  1  0
 18 21  4  0
 19 32  1  0
 21 23  4  0
 22 27  4  0
 22 29  4  0
 23 26  4  0
 23 31  1  0
 25 32  4  0
 26 33  4  0
 28 34  4  0
 30 33  1  0
M  END
$$$$

 Created by Python create_sdf_string function

 34 81  0  0  0  0  0  0  0  0999 V2000
   10.7131   -2.9812   22.2001 N   0  0  0  0  0  0  0  0  0  0  0  0
    8.3550   -5.0941   15.6041 C   0  0  0  0  0  0  0  0  0  0  0  0
   10.9302   -5.0342   22.2305 O   0  0  0  0  0  0  0  0  0  0  0  0
    1.0857  -13.4325   22.5676 C   0  0  0  0  0  0  0  0  0  0  0  0
    6.4421   -8.2355   17.5736 C   0  0  0  0  0  0  0  0  0  0  0  0
   11.0033   -3.2904   17.9646 C   0  0  0  0  0  0  0  0  0  0  0  0
    6.8566   -8.8728   17.4645 Cl  0  0  0  0  0  0  0  0  0  0  0  0
   10.1270   -5.1044   19.6587 C   0  0  0  0  0  0  0  0  0  0  0  0
    1.4910  -12.3447   20.4937 C   0  0  0  0  0  0  0  0  0  0  0  0
    3.7088  -10.1607   17.6188 F   0  0  0  0  0  0  0  0  0  0  0  0
   10.1822   -4.3913   17.6727 N   0  0  0  0  0  0  0  0  0  0  0  0
    9.6620   -5.3911   18.0958 C   0  0  0  0  0  0  0  0  0  0  0  0
    8.6992   -8.0078   17.6660 C   0  0  0  0  0  0  0  0  0  0  0  0
   11.2696   -3.9519   21.3591 C   0  0  0  0  0  0  0  0  0  0  0  0
    2.0066  -13.1062   21.4259 C   0  0  0  0  0  0  0  0  0  0  0  0
    4.7845   -9.8385   14.6508 F   0  0  0  0  0  0  0  0  0  0  0  0
   -0.2315  -11.6348   22.0799 C   0  0  0  0  0  0  0  0  0  0  0  0
    1.3815   -9.1406   16.7013 C   0  0  0  0  0  0  0  0  0  0  0  0
    8.9153   -3.8020   16.4710 N   0  0  0  0  0  0  0  0  0  0  0  0
    0.3816  -12.3015   23.1922 C   0  0  0  0  0  0  0  0  0  0  0  0
    8.1620   -7.2245   16.8173 C   0  0  0  0  0  0  0  0  0  0  0  0
    0.5358  -11.7433   21.4325 C   0  0  0  0  0  0  0  0  0  0  0  0
    1.5218  -12.4869   19.4059 C   0  0  0  0  0  0  0  0  0  0  0  0
    0.6257   -8.3819   15.8805 O   0  0  0  0  0  0  0  0  0  0  0  0
   10.9285   -4.3660   20.5123 N   0  0  0  0  0  0  0  0  0  0  0  0
    2.1408  -11.2389   19.2046 C   0  0  0  0  0  0  0  0  0  0  0  0
    6.1985   -7.8686   15.9691 S   0  0  0  0  0  0  0  0  0  0  0  0
   -0.4539  -10.6040   17.7075 He  0  0  0  0  0  0  0  0  0  0  0  0
    8.6233   -7.7256   17.9059 He  0  0  0  0  0  0  0  0  0  0  0  0
    5.5881   -8.0615   15.7748 He  0  0  0  0  0  0  0  0  0  0  0  0
    7.8623   -7.8472   17.4683 He  0  0  0  0  0  0  0  0  0  0  0  0
    3.0989   -9.2522   17.0115 He  0  0  0  0  0  0  0  0  0  0  0  0
   11.1804   -2.8870   19.0252 He  0  0  0  0  0  0  0  0  0  0  0  0
    1.0612   -9.2287   16.6669 He  0  0  0  0  0  0  0  0  0  0  0  0
  1  7  1  0
  1 10  2  0
  1 14  1  0
  1 15  2  0
  1 16  3  0
  2  4  3  0
  2  5  1  0
  2 10  2  0
  2 19  4  0
  3  5  2  0
  3 14  2  0
  3 19  4  0
  4  8  4  0
  4  9  1  0
  4 11  3  0
  4 15  4  0
  4 18  4  0
  4 20  4  0
  4 26  4  0
  4 27  2  0
  5  7  2  0
  5  8  3  0
  5 10  1  0
  5 11  3  0
  5 12  1  0
  5 14  1  0
  5 16  3  0
  5 17  1  0
  5 21  4  0
  5 26  4  0
  6  7  3  0
  6  9  3  0
  6 11  4  0
  7 10  3  0
  7 12  1  0
  7 18  2  0
  8 10  2  0
  8 11  2  0
  8 12  3  0
  8 15  1  0
  8 22  3  0
  8 25  4  0
  9 15  4  0
  9 22  4  0
  9 23  1  0
 10 12  2  0
 10 14  3  0
 10 16  4  0
 10 19  3  0
 10 22  4  0
 10 26  3  0
 10 27  1  0
 11 12  3  0
 11 16  2  0
 11 18  3  0
 11 19  4  0
 11 21  2  0
 11 25  1  0
 12 24  1  0
 12 26  2  0
 13 26  2  0
 14 22  2  0
 14 23  1  0
 14 25  4  0
 16 18  4  0
 16 20  1  0
 16 24  1  0
 17 20  4  0
 17 21  2  0
 17 22  4  0
 18 24  1  0
 19 23  3  0
 19 24  1  0
 19 27  3  0
 20 24  1  0
 21 22  1  0
 21 24  3  0
 21 27  3  0
 23 24  1  0
 23 26  1  0
 24 26  2  0
M  END
$$$$

 Created by Python create_sdf_string function

 34 34  0  0  0  0  0  0  0  0999 V2000
   10.8740   -2.8300   22.0780 N   0  0  0  0  0  0  0  0  0  0  0  0
    8.3546   -5.0064   15.9079 C   0  0  0  0  0  0  0  0  0  0  0  0
   11.0535   -5.0915   22.2086 O   0  0  0  0  0  0  0  0  0  0  0  0
    0.7721  -10.4871   17.8724 N   0  0  0  0  0  0  0  0  0  0  0  0
    1.2787  -13.3341   22.7611 C   0  0  0  0  0  0  0  0  0  0  0  0
    6.7351   -8.3112   17.3150 C   0  0  0  0  0  0  0  0  0  0  0  0
   10.7420   -3.2071   17.8484 C   0  0  0  0  0  0  0  0  0  0  0  0
    6.7249   -8.6212   17.6580 C   0  0  0  0  0  0  0  0  0  0  0  0
    8.8086   -6.5305   17.6290 C   0  0  0  0  0  0  0  0  0  0  0  0
   10.2241   -5.3064   19.5425 C   0  0  0  0  0  0  0  0  0  0  0  0
    1.3190  -12.2944   20.6302 C   0  0  0  0  0  0  0  0  0  0  0  0
    3.2609  -10.2686   17.8586 N   0  0  0  0  0  0  0  0  0  0  0  0
    9.9256   -4.2372   17.4611 C   0  0  0  0  0  0  0  0  0  0  0  0
    9.7026   -5.3114   18.2499 C   0  0  0  0  0  0  0  0  0  0  0  0
    5.0712   -8.4380   16.1979 C   0  0  0  0  0  0  0  0  0  0  0  0
    7.8440   -7.4347   17.3524 C   0  0  0  0  0  0  0  0  0  0  0  0
    9.0137   -7.9486   17.9811 C   0  0  0  0  0  0  0  0  0  0  0  0
    3.0321   -9.3458   16.7477 C   0  0  0  0  0  0  0  0  0  0  0  0
   10.9324   -4.0759   21.4864 C   0  0  0  0  0  0  0  0  0  0  0  0
    1.8412  -13.2455   21.4933 C   0  0  0  0  0  0  0  0  0  0  0  0
    4.1132   -8.9002   15.9477 C   0  0  0  0  0  0  0  0  0  0  0  0
   -0.2134  -11.5688   22.3489 C   0  0  0  0  0  0  0  0  0  0  0  0
    1.5455   -9.3465   16.6070 C   0  0  0  0  0  0  0  0  0  0  0  0
    9.2088   -4.2345   16.2484 N   0  0  0  0  0  0  0  0  0  0  0  0
   11.1578   -3.1044   19.2398 N   0  0  0  0  0  0  0  0  0  0  0  0
    1.4947   -9.9543   17.2602 C   0  0  0  0  0  0  0  0  0  0  0  0
    0.3136  -12.5432   23.1523 C   0  0  0  0  0  0  0  0  0  0  0  0
    7.8119   -6.7460   16.8780 C   0  0  0  0  0  0  0  0  0  0  0  0
    0.2952  -11.4610   21.0755 C   0  0  0  0  0  0  0  0  0  0  0  0
    1.8736  -12.2681   19.2539 C   0  0  0  0  0  0  0  0  0  0  0  0
    0.7827   -8.7957   15.9565 O   0  0  0  0  0  0  0  0  0  0  0  0
   10.7976   -4.1404   20.0343 C   0  0  0  0  0  0  0  0  0  0  0  0
    1.9389  -11.1085   18.5794 C   0  0  0  0  0  0  0  0  0  0  0  0
    5.9933   -7.7021   15.6807 S   0  0  0  0  0  0  0  0  0  0  0  0
  1 19  1  0
  2 24  4  0
  3 19  2  0
  4 26  4  0
  4 33  4  0
  5 20  4  0
  5 27  4  0
  6  8  4  0
  6 28  4  0
  7 13  4  0
  7 25  4  0
  9 14  4  0
  9 16  4  0
  9 17  1  0
  9 28  4  0
 10 14  4  0
 10 32  4  0
 11 20  4  0
 11 29  4  0
 11 30  1  0
 12 33  4  0
 13 14  4  0
 13 24  4  0
 15 21  1  0
 15 34  4  0
 18 21  1  0
 18 23  4  0
 19 32  1  0
 22 27  4  0
 22 29  4  0
 23 26  4  0
 23 31  1  0
 25 32  4  0
 30 33  1  0
M  END
$$$$

 Created by Python create_sdf_string function

 34 92  0  0  0  0  0  0  0  0999 V2000
   10.6207   -2.7485   22.1960 N   0  0  0  0  0  0  0  0  0  0  0  0
    8.1759   -4.8504   16.0920 C   0  0  0  0  0  0  0  0  0  0  0  0
    1.3936  -13.2070   23.0276 C   0  0  0  0  0  0  0  0  0  0  0  0
    6.4990   -8.8032   17.8256 C   0  0  0  0  0  0  0  0  0  0  0  0
   10.8216   -3.2561   17.6161 C   0  0  0  0  0  0  0  0  0  0  0  0
    9.3200   -8.9756   16.3851 S   0  0  0  0  0  0  0  0  0  0  0  0
   10.2469   -4.7728   19.7269 C   0  0  0  0  0  0  0  0  0  0  0  0
    1.5708  -11.9924   20.5641 C   0  0  0  0  0  0  0  0  0  0  0  0
    9.6077   -4.2079   17.0132 S   0  0  0  0  0  0  0  0  0  0  0  0
    9.7436   -5.2194   18.2389 C   0  0  0  0  0  0  0  0  0  0  0  0
    4.4436   -8.7887   15.1665 C   0  0  0  0  0  0  0  0  0  0  0  0
    7.8380   -7.2680   17.2011 I   0  0  0  0  0  0  0  0  0  0  0  0
    9.0828   -7.6559   17.8475 C   0  0  0  0  0  0  0  0  0  0  0  0
    2.6614   -9.2879   18.7150 O   0  0  0  0  0  0  0  0  0  0  0  0
   10.7301   -4.0555   21.6617 C   0  0  0  0  0  0  0  0  0  0  0  0
    2.0223  -13.4918   21.3704 F   0  0  0  0  0  0  0  0  0  0  0  0
   -0.1455  -11.4725   22.1885 C   0  0  0  0  0  0  0  0  0  0  0  0
    1.9622   -9.6165   16.7039 C   0  0  0  0  0  0  0  0  0  0  0  0
    9.1837   -4.1599   16.9635 N   0  0  0  0  0  0  0  0  0  0  0  0
   11.1380   -3.3464   19.2636 N   0  0  0  0  0  0  0  0  0  0  0  0
    1.0184   -9.6939   16.4624 O   0  0  0  0  0  0  0  0  0  0  0  0
    0.6100  -13.0431   23.1833 C   0  0  0  0  0  0  0  0  0  0  0  0
    7.1039   -6.5940   16.7587 C   0  0  0  0  0  0  0  0  0  0  0  0
    0.5512  -11.5357   20.9114 C   0  0  0  0  0  0  0  0  0  0  0  0
    2.0450  -12.5440   19.3858 C   0  0  0  0  0  0  0  0  0  0  0  0
    1.2335   -8.5495   16.3590 O   0  0  0  0  0  0  0  0  0  0  0  0
   10.8384   -3.8182   19.5439 C   0  0  0  0  0  0  0  0  0  0  0  0
    1.8862  -11.4353   18.7049 C   0  0  0  0  0  0  0  0  0  0  0  0
    5.7000   -7.7526   14.9055 F   0  0  0  0  0  0  0  0  0  0  0  0
   11.0202   -5.1786   21.9182 He  0  0  0  0  0  0  0  0  0  0  0  0
    0.4029   -9.9314   17.3174 He  0  0  0  0  0  0  0  0  0  0  0  0
    8.9574   -7.5767   19.7133 He  0  0  0  0  0  0  0  0  0  0  0  0
    3.5454  -10.7558   18.2729 He  0  0  0  0  0  0  0  0  0  0  0  0
    4.7740   -9.3372   15.8348 He  0  0  0  0  0  0  0  0  0  0  0  0
  1 14  3  0
  1 15  1  0
  1 18  4  0
  1 22  3  0
  2 11  3  0
  2 12  1  0
  2 16  1  0
  2 19  4  0
  3 11  1  0
  3 16  4  0
  3 17  1  0
  3 22  4  0
  3 24  2  0
  4  6  3  0
  4  9  1  0
  4 12  4  0
  4 16  1  0
  4 20  2  0
  4 21  1  0
  4 23  4  0
  4 25  2  0
  4 27  1  0
  5  9  4  0
  5 10  3  0
  5 12  2  0
  5 14  2  0
  5 20  4  0
  5 21  2  0
  5 26  3  0
  6 14  3  0
  6 16  4  0
  6 21  3  0
  6 25  3  0
  6 26  4  0
  6 27  2  0
  7 12  1  0
  7 14  4  0
  7 18  4  0
  7 19  1  0
  7 23  1  0
  7 25  2  0
  7 26  2  0
  7 27  4  0
  8  9  2  0
  8 14  2  0
  8 16  4  0
  8 19  4  0
  8 23  4  0
  8 25  1  0
  9 10  4  0
  9 14  2  0
  9 19  4  0
  9 29  3  0
 10 13  3  0
 10 16  3  0
 10 24  4  0
 11 13  2  0
 11 14  4  0
 11 18  3  0
 11 25  1  0
 11 29  1  0
 12 16  1  0
 12 18  3  0
 12 19  2  0
 13 21  2  0
 13 25  1  0
 14 17  4  0
 14 20  2  0
 14 21  1  0
 14 22  3  0
 14 23  1  0
 14 25  3  0
 14 27  2  0
 14 28  4  0
 15 27  1  0
 16 22  2  0
 17 24  3  0
 17 26  1  0
 18 26  3  0
 19 21  2  0
 19 22  1  0
 19 28  1  0
 20 21  3  0
 20 23  4  0
 20 27  4  0
 22 23  4  0
 22 24  2  0
 22 26  1  0
 23 26  4  0
 23 28  3  0
 25 28  1  0
 26 29  3  0
M  END
$$$$

 Created by Python create_sdf_string function

 34 36  0  0  0  0  0  0  0  0999 V2000
   10.7238   -2.7567   21.9956 N   0  0  0  0  0  0  0  0  0  0  0  0
    8.3154   -5.3715   16.2641 C   0  0  0  0  0  0  0  0  0  0  0  0
   10.9753   -5.0311   22.2184 O   0  0  0  0  0  0  0  0  0  0  0  0
    0.8500  -10.7945   17.8222 N   0  0  0  0  0  0  0  0  0  0  0  0
    1.3562  -13.3972   22.7455 C   0  0  0  0  0  0  0  0  0  0  0  0
    6.5220   -8.4515   17.3320 C   0  0  0  0  0  0  0  0  0  0  0  0
   10.6894   -3.2138   17.7799 C   0  0  0  0  0  0  0  0  0  0  0  0
    8.1013   -8.5528   16.9689 C   0  0  0  0  0  0  0  0  0  0  0  0
    9.0632   -6.5213   17.7223 C   0  0  0  0  0  0  0  0  0  0  0  0
   10.1603   -5.2843   19.5291 C   0  0  0  0  0  0  0  0  0  0  0  0
    1.5048  -12.2975   20.6592 C   0  0  0  0  0  0  0  0  0  0  0  0
    3.2940  -10.6089   18.2478 N   0  0  0  0  0  0  0  0  0  0  0  0
    9.8799   -4.2981   17.4311 C   0  0  0  0  0  0  0  0  0  0  0  0
    9.7442   -5.3523   18.3069 C   0  0  0  0  0  0  0  0  0  0  0  0
    4.7105   -8.4291   15.8324 C   0  0  0  0  0  0  0  0  0  0  0  0
    7.3015   -7.3111   16.5301 C   0  0  0  0  0  0  0  0  0  0  0  0
    8.9973   -7.7478   17.9530 C   0  0  0  0  0  0  0  0  0  0  0  0
    3.2323   -9.9474   17.4171 C   0  0  0  0  0  0  0  0  0  0  0  0
   10.8379   -3.9553   21.4771 C   0  0  0  0  0  0  0  0  0  0  0  0
    1.9874  -13.2678   21.5269 C   0  0  0  0  0  0  0  0  0  0  0  0
    4.3361   -9.1030   16.3855 N   0  0  0  0  0  0  0  0  0  0  0  0
   -0.0510  -11.5763   22.3440 C   0  0  0  0  0  0  0  0  0  0  0  0
    2.1079   -9.4303   16.6961 C   0  0  0  0  0  0  0  0  0  0  0  0
    9.2005   -4.3401   16.3627 N   0  0  0  0  0  0  0  0  0  0  0  0
   10.9985   -3.0421   19.1439 C   0  0  0  0  0  0  0  0  0  0  0  0
    0.9984   -9.9132   17.0470 C   0  0  0  0  0  0  0  0  0  0  0  0
    0.4282  -12.6224   23.1561 C   0  0  0  0  0  0  0  0  0  0  0  0
    7.3666   -6.7248   16.4928 C   0  0  0  0  0  0  0  0  0  0  0  0
    0.4628  -11.4103   21.1281 C   0  0  0  0  0  0  0  0  0  0  0  0
    2.1205  -12.3664   19.3365 C   0  0  0  0  0  0  0  0  0  0  0  0
    2.1086   -8.6099   15.8155 O   0  0  0  0  0  0  0  0  0  0  0  0
   10.6821   -4.0280   20.0063 C   0  0  0  0  0  0  0  0  0  0  0  0
    2.0572  -11.2457   18.5711 C   0  0  0  0  0  0  0  0  0  0  0  0
    5.6619   -7.7217   15.5038 C   0  0  0  0  0  0  0  0  0  0  0  0
  1 19  1  0
  2  9  4  0
  2 24  4  0
  2 28  4  0
  3 19  2  0
  4 26  4  0
  4 33  4  0
  5 20  4  0
  5 27  4  0
  6 16  4  0
  7 13  4  0
  7 25  4  0
  8 17  4  0
  9 14  4  0
  9 17  4  0
 10 14  4  0
 10 32  4  0
 11 20  4  0
 11 29  4  0
 11 30  1  0
 12 18  4  0
 12 33  4  0
 13 14  4  0
 13 24  4  0
 15 21  1  0
 15 34  1  0
 16 28  4  0
 18 21  1  0
 18 23  4  0
 19 32  1  0
 22 27  4  0
 22 29  4  0
 23 26  4  0
 23 31  1  0
 25 32  4  0
 30 33  1  0
M  END
$$$$

 Created by Python create_sdf_string function

 34 74  0  0  0  0  0  0  0  0999 V2000
   10.9168   -2.6206   22.2081 N   0  0  0  0  0  0  0  0  0  0  0  0
    8.5869   -5.2439   16.2517 N   0  0  0  0  0  0  0  0  0  0  0  0
   10.9792   -4.9813   21.9800 O   0  0  0  0  0  0  0  0  0  0  0  0
    1.9406  -13.6543   22.5205 C   0  0  0  0  0  0  0  0  0  0  0  0
    6.1779   -8.8810   16.7128 P   0  0  0  0  0  0  0  0  0  0  0  0
   10.7384   -3.0692   17.8394 C   0  0  0  0  0  0  0  0  0  0  0  0
    9.6817   -4.9293   19.6091 S   0  0  0  0  0  0  0  0  0  0  0  0
    1.3715  -11.9700   21.0028 C   0  0  0  0  0  0  0  0  0  0  0  0
    3.4451  -11.5256   18.7171 S   0  0  0  0  0  0  0  0  0  0  0  0
    9.4916   -4.3760   17.5238 C   0  0  0  0  0  0  0  0  0  0  0  0
    9.6577   -5.3723   18.4691 C   0  0  0  0  0  0  0  0  0  0  0  0
    5.1352   -7.6449   15.1400 S   0  0  0  0  0  0  0  0  0  0  0  0
    7.5277   -6.6435   17.1568 C   0  0  0  0  0  0  0  0  0  0  0  0
    8.9548   -7.6225   17.8918 C   0  0  0  0  0  0  0  0  0  0  0  0
    1.3548  -13.6444   21.5038 C   0  0  0  0  0  0  0  0  0  0  0  0
    5.6311   -9.6946   17.2391 N   0  0  0  0  0  0  0  0  0  0  0  0
   -0.5268  -11.6053   21.8677 C   0  0  0  0  0  0  0  0  0  0  0  0
    2.0608   -9.9006   16.4235 C   0  0  0  0  0  0  0  0  0  0  0  0
   10.7173   -3.2825   19.2163 C   0  0  0  0  0  0  0  0  0  0  0  0
   -0.2655  -10.6533   16.0769 C   0  0  0  0  0  0  0  0  0  0  0  0
    0.2255  -13.3013   23.4293 C   0  0  0  0  0  0  0  0  0  0  0  0
    7.0273   -5.9753   17.1714 C   0  0  0  0  0  0  0  0  0  0  0  0
    2.4791  -12.1492   19.2895 C   0  0  0  0  0  0  0  0  0  0  0  0
    0.7300   -9.2148   16.4814 N   0  0  0  0  0  0  0  0  0  0  0  0
   10.7591   -3.4328   20.0861 C   0  0  0  0  0  0  0  0  0  0  0  0
    2.3073  -11.0826   18.9276 C   0  0  0  0  0  0  0  0  0  0  0  0
    0.8157  -12.2248   17.6625 He  0  0  0  0  0  0  0  0  0  0  0  0
    7.7014   -8.8236   16.2636 He  0  0  0  0  0  0  0  0  0  0  0  0
    9.5865   -5.9893   17.6126 He  0  0  0  0  0  0  0  0  0  0  0  0
    3.2371  -10.1806   17.4355 He  0  0  0  0  0  0  0  0  0  0  0  0
   10.7572   -4.3194   21.5139 He  0  0  0  0  0  0  0  0  0  0  0  0
    9.2687   -4.0249   16.0358 He  0  0  0  0  0  0  0  0  0  0  0  0
    0.5948  -11.1792   20.9962 He  0  0  0  0  0  0  0  0  0  0  0  0
    5.7849   -7.6565   15.4922 He  0  0  0  0  0  0  0  0  0  0  0  0
  1  3  3  0
  1 10  2  0
  1 12  3  0
  2  5  1  0
  2  7  1  0
  2  8  2  0
  2 12  4  0
  2 13  2  0
  2 20  2  0
  3  9  2  0
  3 20  1  0
  3 23  4  0
  4 15  4  0
  4 18  3  0
  4 20  3  0
  4 21  4  0
  5  6  4  0
  5  8  2  0
  5 11  2  0
  5 14  4  0
  5 16  1  0
  5 22  3  0
  6 10  4  0
  6 13  3  0
  6 16  4  0
  6 19  4  0
  6 22  1  0
  6 24  1  0
  7 10  2  0
  7 11  4  0
  7 12  1  0
  7 25  4  0
  8 15  4  0
  8 18  3  0
  8 23  1  0
  8 24  2  0
  9 10  1  0
  9 13  3  0
  9 14  2  0
  9 16  1  0
  9 18  4  0
  9 19  1  0
  9 21  2  0
  9 23  1  0
  9 24  4  0
 10 11  4  0
 10 12  2  0
 10 22  2  0
 11 12  2  0
 11 15  3  0
 11 22  1  0
 12 13  1  0
 12 14  4  0
 12 16  1  0
 12 17  4  0
 12 22  2  0
 13 20  1  0
 13 22  4  0
 13 24  3  0
 14 20  3  0
 14 23  4  0
 15 22  2  0
 16 20  4  0
 16 23  3  0
 17 21  4  0
 17 25  4  0
 18 24  2  0
 19 22  3  0
 19 24  3  0
 19 25  4  0
 20 22  3  0
 20 23  3  0
 20 24  3  0
 23 26  1  0
M  END
$$$$

 Created by Python create_sdf_string function

 34 36  0  0  0  0  0  0  0  0999 V2000
   10.8493   -2.7291   22.0432 N   0  0  0  0  0  0  0  0  0  0  0  0
    8.3334   -5.0448   15.9849 N   0  0  0  0  0  0  0  0  0  0  0  0
   10.8894   -4.9633   22.1621 O   0  0  0  0  0  0  0  0  0  0  0  0
    0.8809  -11.2473   17.9016 N   0  0  0  0  0  0  0  0  0  0  0  0
    1.2027  -13.6250   22.6159 C   0  0  0  0  0  0  0  0  0  0  0  0
    6.2756   -9.1672   17.1111 C   0  0  0  0  0  0  0  0  0  0  0  0
   10.6355   -3.0772   17.8189 C   0  0  0  0  0  0  0  0  0  0  0  0
    7.5095   -8.6401   17.1633 C   0  0  0  0  0  0  0  0  0  0  0  0
    8.9669   -6.2420   17.4965 C   0  0  0  0  0  0  0  0  0  0  0  0
   10.0419   -5.2009   19.4844 C   0  0  0  0  0  0  0  0  0  0  0  0
    1.5488  -12.2995   20.7063 C   0  0  0  0  0  0  0  0  0  0  0  0
    3.2937  -10.6831   18.2576 N   0  0  0  0  0  0  0  0  0  0  0  0
    9.8858   -4.1568   17.4105 C   0  0  0  0  0  0  0  0  0  0  0  0
    9.6226   -5.2190   18.1614 C   0  0  0  0  0  0  0  0  0  0  0  0
    4.8896   -8.0143   16.0466 C   0  0  0  0  0  0  0  0  0  0  0  0
    7.2616   -7.3054   16.6318 C   0  0  0  0  0  0  0  0  0  0  0  0
    9.0719   -7.6453   17.8888 C   0  0  0  0  0  0  0  0  0  0  0  0
    3.3745   -9.8352   17.2839 C   0  0  0  0  0  0  0  0  0  0  0  0
   10.8083   -3.9397   21.4957 C   0  0  0  0  0  0  0  0  0  0  0  0
    1.9082  -13.3844   21.4724 C   0  0  0  0  0  0  0  0  0  0  0  0
    4.7860   -9.2781   16.9405 N   0  0  0  0  0  0  0  0  0  0  0  0
   -0.1930  -11.7432   22.2863 C   0  0  0  0  0  0  0  0  0  0  0  0
    2.2856   -9.5597   16.6448 C   0  0  0  0  0  0  0  0  0  0  0  0
    9.2294   -4.1801   16.1993 C   0  0  0  0  0  0  0  0  0  0  0  0
   10.9277   -2.9704   19.2245 C   0  0  0  0  0  0  0  0  0  0  0  0
    0.2281  -10.5797   16.8048 C   0  0  0  0  0  0  0  0  0  0  0  0
    0.2010  -12.8425   23.0118 C   0  0  0  0  0  0  0  0  0  0  0  0
    7.2629   -6.6925   16.3497 C   0  0  0  0  0  0  0  0  0  0  0  0
    0.4466  -11.4555   21.1122 C   0  0  0  0  0  0  0  0  0  0  0  0
    2.4193  -12.0238   19.5140 C   0  0  0  0  0  0  0  0  0  0  0  0
    1.0245   -9.9509   16.5146 N   0  0  0  0  0  0  0  0  0  0  0  0
   10.5980   -3.9829   20.0316 C   0  0  0  0  0  0  0  0  0  0  0  0
    2.1379  -11.3026   18.5508 C   0  0  0  0  0  0  0  0  0  0  0  0
    5.6481   -7.4404   15.8191 C   0  0  0  0  0  0  0  0  0  0  0  0
  1 19  1  0
  2  9  4  0
  2 24  4  0
  3 19  2  0
  4 26  4  0
  4 33  4  0
  5 20  4  0
  5 27  4  0
  6  8  4  0
  6 21  1  0
  7 13  4  0
  7 25  4  0
  8 16  4  0
  9 14  4  0
  9 17  1  0
 10 14  4  0
 10 32  4  0
 11 20  4  0
 11 29  4  0
 11 30  1  0
 12 18  4  0
 12 33  4  0
 13 14  4  0
 13 24  4  0
 15 21  1  0
 15 34  1  0
 16 28  4  0
 18 21  1  0
 18 23  4  0
 19 32  1  0
 22 27  4  0
 22 29  4  0
 23 31  4  0
 25 32  4  0
 26 31  4  0
 30 33  1  0
M  END
$$$$

 Created by Python create_sdf_string function

 34 99  0  0  0  0  0  0  0  0999 V2000
   10.9379   -2.8019   22.5780 N   0  0  0  0  0  0  0  0  0  0  0  0
    8.2849   -5.1640   15.9186 N   0  0  0  0  0  0  0  0  0  0  0  0
   11.0621   -4.8720   22.1761 O   0  0  0  0  0  0  0  0  0  0  0  0
    1.8180  -13.0982   22.6287 C   0  0  0  0  0  0  0  0  0  0  0  0
    6.0318   -9.6855   17.1869 N   0  0  0  0  0  0  0  0  0  0  0  0
    8.1438   -8.6597   16.4649 P   0  0  0  0  0  0  0  0  0  0  0  0
   10.4136   -5.4525   19.9875 Se  0  0  0  0  0  0  0  0  0  0  0  0
    1.4678  -12.0613   20.6591 N   0  0  0  0  0  0  0  0  0  0  0  0
    2.8916  -10.5899   18.7750 N   0  0  0  0  0  0  0  0  0  0  0  0
    9.5704   -5.4439   18.4356 C   0  0  0  0  0  0  0  0  0  0  0  0
    5.3339   -7.7182   16.6312 N   0  0  0  0  0  0  0  0  0  0  0  0
    8.1567   -7.3273   16.0516 C   0  0  0  0  0  0  0  0  0  0  0  0
    8.8420   -7.5761   17.9368 C   0  0  0  0  0  0  0  0  0  0  0  0
    4.3449  -10.2191   18.3375 C   0  0  0  0  0  0  0  0  0  0  0  0
   10.9933   -4.3183   21.7266 C   0  0  0  0  0  0  0  0  0  0  0  0
    2.2114  -13.3314   21.3030 C   0  0  0  0  0  0  0  0  0  0  0  0
    5.0590   -8.9165   17.7298 N   0  0  0  0  0  0  0  0  0  0  0  0
    0.0221  -11.5794   21.9860 F   0  0  0  0  0  0  0  0  0  0  0  0
    2.4841   -9.4742   16.5169 C   0  0  0  0  0  0  0  0  0  0  0  0
    9.0456   -4.4104   16.1547 C   0  0  0  0  0  0  0  0  0  0  0  0
   10.8597   -2.9119   19.5324 F   0  0  0  0  0  0  0  0  0  0  0  0
    0.7239  -10.0859   16.4319 F   0  0  0  0  0  0  0  0  0  0  0  0
   -0.1559  -12.2814   22.7908 C   0  0  0  0  0  0  0  0  0  0  0  0
    0.4704  -11.4390   21.0590 C   0  0  0  0  0  0  0  0  0  0  0  0
    2.6382  -12.4657   19.4981 C   0  0  0  0  0  0  0  0  0  0  0  0
    0.3270  -10.2081   16.6174 N   0  0  0  0  0  0  0  0  0  0  0  0
   10.5458   -4.5006   19.5857 C   0  0  0  0  0  0  0  0  0  0  0  0
    2.5664  -11.0738   18.8979 N   0  0  0  0  0  0  0  0  0  0  0  0
    6.0454   -7.6232   15.8448 C   0  0  0  0  0  0  0  0  0  0  0  0
    1.3177  -11.2131   17.8723 He  0  0  0  0  0  0  0  0  0  0  0  0
   11.1198   -3.2433   17.7474 He  0  0  0  0  0  0  0  0  0  0  0  0
   10.1297   -6.6485   17.4430 He  0  0  0  0  0  0  0  0  0  0  0  0
    9.9682   -4.1068   17.7253 He  0  0  0  0  0  0  0  0  0  0  0  0
    6.7189   -6.2016   17.7510 He  0  0  0  0  0  0  0  0  0  0  0  0
  1  4  2  0
  1 12  4  0
  1 17  2  0
  1 18  3  0
  1 22  2  0
  2  5  1  0
  2  9  3  0
  2 13  1  0
  2 17  4  0
  2 20  3  0
  2 22  3  0
  2 26  1  0
  3 15  2  0
  3 20  1  0
  4  6  4  0
  4  9  1  0
  4 10  1  0
  4 11  4  0
  4 16  4  0
  4 17  2  0
  4 23  4  0
  4 26  3  0
  5  6  2  0
  5 11  1  0
  5 14  3  0
  5 16  1  0
  5 17  1  0
  5 26  4  0
  5 27  4  0
  5 28  3  0
  6  8  1  0
  6  9  2  0
  6 14  3  0
  6 19  4  0
  6 23  2  0
  6 27  1  0
  7 10  4  0
  7 15  3  0
  7 22  4  0
  8 13  3  0
  8 14  1  0
  8 16  4  0
  8 20  2  0
  8 21  4  0
  8 23  1  0
  8 24  4  0
  8 25  3  0
  8 26  2  0
  9 11  2  0
  9 14  1  0
  9 19  4  0
  9 20  1  0
  9 28  1  0
  9 29  1  0
 10 11  2  0
 10 15  2  0
 10 23  1  0
 10 25  1  0
 11 13  3  0
 11 16  2  0
 11 17  1  0
 11 19  4  0
 11 22  3  0
 11 23  3  0
 11 27  2  0
 12 13  1  0
 12 14  3  0
 12 19  1  0
 12 21  1  0
 12 29  1  0
 13 22  3  0
 13 23  2  0
 13 25  2  0
 14 21  3  0
 14 22  1  0
 14 24  4  0
 15 22  3  0
 16 26  2  0
 17 21  2  0
 17 27  4  0
 18 22  3  0
 18 23  4  0
 18 24  4  0
 19 26  4  0
 19 28  2  0
 20 26  1  0
 21 22  4  0
 21 24  4  0
 21 27  4  0
 22 24  2  0
 22 29  1  0
 23 25  4  0
 24 25  4  0
 24 26  1  0
 25 27  2  0
 25 28  1  0
 26 27  3  0
 26 29  4  0
 28 29  3  0
M  END
$$$$

 Created by Python create_sdf_string function

 34 37  0  0  0  0  0  0  0  0999 V2000
   10.8279   -2.8356   22.1327 N   0  0  0  0  0  0  0  0  0  0  0  0
    8.4455   -5.0816   16.1182 N   0  0  0  0  0  0  0  0  0  0  0  0
   11.0496   -5.1458   22.3738 O   0  0  0  0  0  0  0  0  0  0  0  0
    1.1153  -11.1888   17.8938 N   0  0  0  0  0  0  0  0  0  0  0  0
    1.3541  -13.1863   22.7148 C   0  0  0  0  0  0  0  0  0  0  0  0
    6.3551   -9.4662   17.2689 C   0  0  0  0  0  0  0  0  0  0  0  0
   10.6826   -3.1328   17.9839 C   0  0  0  0  0  0  0  0  0  0  0  0
    7.6996   -8.8610   16.5339 C   0  0  0  0  0  0  0  0  0  0  0  0
    9.2561   -6.4124   17.6687 C   0  0  0  0  0  0  0  0  0  0  0  0
   10.3036   -5.4307   19.6332 C   0  0  0  0  0  0  0  0  0  0  0  0
    1.6447  -12.1482   20.5700 C   0  0  0  0  0  0  0  0  0  0  0  0
    3.0410  -10.2246   17.8102 C   0  0  0  0  0  0  0  0  0  0  0  0
   10.0530   -4.2631   17.5310 C   0  0  0  0  0  0  0  0  0  0  0  0
    9.9047   -5.4136   18.2990 C   0  0  0  0  0  0  0  0  0  0  0  0
    5.2488   -8.2219   16.7388 C   0  0  0  0  0  0  0  0  0  0  0  0
    7.8952   -7.6206   16.6746 C   0  0  0  0  0  0  0  0  0  0  0  0
    8.9926   -7.4508   17.6629 C   0  0  0  0  0  0  0  0  0  0  0  0
    4.3062  -10.1039   18.0279 C   0  0  0  0  0  0  0  0  0  0  0  0
   10.9111   -4.1237   21.6251 C   0  0  0  0  0  0  0  0  0  0  0  0
    2.0539  -13.0710   21.4801 C   0  0  0  0  0  0  0  0  0  0  0  0
    5.0006   -9.1082   17.5071 N   0  0  0  0  0  0  0  0  0  0  0  0
   -0.1760  -11.5020   22.0800 C   0  0  0  0  0  0  0  0  0  0  0  0
    2.3119   -9.4663   16.8522 C   0  0  0  0  0  0  0  0  0  0  0  0
    9.3432   -4.2883   16.3674 C   0  0  0  0  0  0  0  0  0  0  0  0
   10.9816   -3.0949   19.3637 C   0  0  0  0  0  0  0  0  0  0  0  0
    0.7461  -10.2043   16.8230 C   0  0  0  0  0  0  0  0  0  0  0  0
    0.3131  -12.4208   22.9627 C   0  0  0  0  0  0  0  0  0  0  0  0
    6.9968   -6.3723   16.8306 C   0  0  0  0  0  0  0  0  0  0  0  0
    0.4681  -11.3680   20.8831 C   0  0  0  0  0  0  0  0  0  0  0  0
    2.4794  -11.9837   19.3456 C   0  0  0  0  0  0  0  0  0  0  0  0
    0.9209   -9.7658   16.5411 N   0  0  0  0  0  0  0  0  0  0  0  0
   10.7473   -4.1715   20.1239 C   0  0  0  0  0  0  0  0  0  0  0  0
    2.2456  -11.1408   18.4055 C   0  0  0  0  0  0  0  0  0  0  0  0
    6.2348   -7.4875   16.1591 C   0  0  0  0  0  0  0  0  0  0  0  0
  1 19  1  0
  2 24  4  0
  3 19  2  0
  4 26  4  0
  4 33  4  0
  5 20  4  0
  5 27  4  0
  6  8  1  0
  6 21  1  0
  7 13  4  0
  7 25  4  0
  8 16  1  0
  9 14  4  0
  9 17  4  0
 10 14  4  0
 10 32  4  0
 11 20  4  0
 11 29  4  0
 11 30  1  0
 12 18  1  0
 12 23  4  0
 12 33  4  0
 13 14  4  0
 13 24  4  0
 15 21  1  0
 15 34  1  0
 16 17  1  0
 16 34  1  0
 18 21  1  0
 19 32  1  0
 22 27  4  0
 22 29  4  0
 23 31  4  0
 25 32  4  0
 26 31  4  0
 28 34  1  0
 30 33  1  0
M  END
$$$$

 Created by Python create_sdf_string function

 34 68  0  0  0  0  0  0  0  0999 V2000
    8.4472   -5.1264   15.9052 N   0  0  0  0  0  0  0  0  0  0  0  0
   11.7325   -5.5112   22.1897 O   0  0  0  0  0  0  0  0  0  0  0  0
    0.9962  -13.2564   23.3464 C   0  0  0  0  0  0  0  0  0  0  0  0
    6.5131   -9.6945   16.9856 C   0  0  0  0  0  0  0  0  0  0  0  0
   10.6037   -3.0736   17.8830 C   0  0  0  0  0  0  0  0  0  0  0  0
    8.8408   -6.1571   18.5922 C   0  0  0  0  0  0  0  0  0  0  0  0
   10.1328   -5.2257   19.6467 C   0  0  0  0  0  0  0  0  0  0  0  0
    1.8183  -11.6423   20.5298 C   0  0  0  0  0  0  0  0  0  0  0  0
    2.5205  -11.1673   19.8290 Cl  0  0  0  0  0  0  0  0  0  0  0  0
   10.1504   -4.2159   17.7086 C   0  0  0  0  0  0  0  0  0  0  0  0
   10.0453   -5.2314   18.2897 C   0  0  0  0  0  0  0  0  0  0  0  0
    8.8311   -7.0599   17.5346 C   0  0  0  0  0  0  0  0  0  0  0  0
    2.4433  -13.1224   21.6132 C   0  0  0  0  0  0  0  0  0  0  0  0
    5.4732   -9.3510   17.0869 F   0  0  0  0  0  0  0  0  0  0  0  0
    0.0365  -11.3707   22.0716 C   0  0  0  0  0  0  0  0  0  0  0  0
    2.2080   -9.1565   17.2384 C   0  0  0  0  0  0  0  0  0  0  0  0
    9.7339   -4.2135   16.5951 C   0  0  0  0  0  0  0  0  0  0  0  0
   10.9208   -3.2080   19.3157 C   0  0  0  0  0  0  0  0  0  0  0  0
    0.1266  -12.4315   22.6064 C   0  0  0  0  0  0  0  0  0  0  0  0
    7.8054   -5.3258   16.4845 Cl  0  0  0  0  0  0  0  0  0  0  0  0
    0.6282  -11.5229   20.8925 C   0  0  0  0  0  0  0  0  0  0  0  0
    2.7849  -11.6734   19.1532 C   0  0  0  0  0  0  0  0  0  0  0  0
    1.7447   -9.5071   16.1926 N   0  0  0  0  0  0  0  0  0  0  0  0
    2.3340  -11.2846   18.3486 C   0  0  0  0  0  0  0  0  0  0  0  0
    6.4147   -7.6193   16.1798 C   0  0  0  0  0  0  0  0  0  0  0  0
   11.1893   -2.7635   22.1388 He  0  0  0  0  0  0  0  0  0  0  0  0
    0.7791  -11.4404   16.6280 He  0  0  0  0  0  0  0  0  0  0  0  0
    8.3517   -7.8763   16.7652 He  0  0  0  0  0  0  0  0  0  0  0  0
    5.6047   -8.1288   15.5454 He  0  0  0  0  0  0  0  0  0  0  0  0
    9.4514   -7.7351   15.1912 He  0  0  0  0  0  0  0  0  0  0  0  0
    4.1223   -9.0538   18.3823 He  0  0  0  0  0  0  0  0  0  0  0  0
   10.8725   -4.0022   21.0912 He  0  0  0  0  0  0  0  0  0  0  0  0
    0.5707   -9.9462   16.6697 He  0  0  0  0  0  0  0  0  0  0  0  0
   10.3027   -4.3607   19.8741 He  0  0  0  0  0  0  0  0  0  0  0  0
  1  2  4  0
  1  8  2  0
  1 14  2  0
  1 17  4  0
  1 18  4  0
  2  5  1  0
  2  9  2  0
  3  4  4  0
  3  5  3  0
  3  6  2  0
  3 13  4  0
  3 14  2  0
  3 19  4  0
  4  9  3  0
  4 14  1  0
  4 19  4  0
  4 22  3  0
  4 25  3  0
  5 10  4  0
  5 14  3  0
  5 15  4  0
  5 18  4  0
  5 23  1  0
  6 11  4  0
  6 12  4  0
  6 15  3  0
  6 16  3  0
  6 18  2  0
  6 19  1  0
  6 22  3  0
  6 23  2  0
  6 24  4  0
  7 11  4  0
  7 19  1  0
  7 23  4  0
  8 12  4  0
  8 13  4  0
  8 15  2  0
  8 18  4  0
  8 20  3  0
  8 21  4  0
  8 23  1  0
  9 14  3  0
  9 18  4  0
 10 11  4  0
 10 17  2  0
 11 14  2  0
 12 13  3  0
 12 22  1  0
 13 14  1  0
 13 15  4  0
 13 18  3  0
 13 20  1  0
 13 25  4  0
 15 19  4  0
 15 20  1  0
 15 21  4  0
 16 17  1  0
 16 23  4  0
 17 20  1  0
 17 22  4  0
 17 23  3  0
 20 21  2  0
 20 23  3  0
 20 25  2  0
 22 24  1  0
 22 25  2  0
 23 24  3  0
M  END
$$$$

 Created by Python create_sdf_string function

 34 37  0  0  0  0  0  0  0  0999 V2000
   11.0667   -2.9434   22.1076 O   0  0  0  0  0  0  0  0  0  0  0  0
    8.4505   -5.0352   15.8121 N   0  0  0  0  0  0  0  0  0  0  0  0
   11.2132   -5.1648   22.2346 O   0  0  0  0  0  0  0  0  0  0  0  0
    0.8949  -10.9649   17.4548 N   0  0  0  0  0  0  0  0  0  0  0  0
    1.2882  -13.0903   22.7675 C   0  0  0  0  0  0  0  0  0  0  0  0
    6.6382   -9.0772   17.3266 C   0  0  0  0  0  0  0  0  0  0  0  0
   10.6494   -3.1875   17.9770 C   0  0  0  0  0  0  0  0  0  0  0  0
    7.7037   -8.3212   17.0954 C   0  0  0  0  0  0  0  0  0  0  0  0
    9.1713   -6.5419   17.7877 C   0  0  0  0  0  0  0  0  0  0  0  0
   10.1805   -5.3961   19.6306 C   0  0  0  0  0  0  0  0  0  0  0  0
    1.7348  -11.9547   20.7395 C   0  0  0  0  0  0  0  0  0  0  0  0
    2.7441  -11.7744   19.4458 C   0  0  0  0  0  0  0  0  0  0  0  0
    9.9700   -4.2875   17.5714 C   0  0  0  0  0  0  0  0  0  0  0  0
    9.7528   -5.4020   18.3425 C   0  0  0  0  0  0  0  0  0  0  0  0
    5.3957   -8.1875   16.2327 C   0  0  0  0  0  0  0  0  0  0  0  0
    8.1684   -7.9087   15.7469 C   0  0  0  0  0  0  0  0  0  0  0  0
    8.4509   -6.9388   16.9324 C   0  0  0  0  0  0  0  0  0  0  0  0
    4.2357   -9.6527   17.6954 N   0  0  0  0  0  0  0  0  0  0  0  0
   11.0464   -4.1123   21.5641 C   0  0  0  0  0  0  0  0  0  0  0  0
    2.0892  -12.9039   21.6774 C   0  0  0  0  0  0  0  0  0  0  0  0
    5.2694   -8.9861   17.0482 C   0  0  0  0  0  0  0  0  0  0  0  0
   -0.1897  -11.4178   21.9692 C   0  0  0  0  0  0  0  0  0  0  0  0
    2.8605   -9.6092   17.0720 C   0  0  0  0  0  0  0  0  0  0  0  0
    9.3739   -4.2559   16.2971 C   0  0  0  0  0  0  0  0  0  0  0  0
   10.9753   -3.0859   19.2925 C   0  0  0  0  0  0  0  0  0  0  0  0
    0.8293  -10.1175   16.5493 C   0  0  0  0  0  0  0  0  0  0  0  0
    0.1667  -12.3690   22.8960 C   0  0  0  0  0  0  0  0  0  0  0  0
    7.6583   -5.6393   15.8957 O   0  0  0  0  0  0  0  0  0  0  0  0
    0.6202  -11.1902   20.8900 C   0  0  0  0  0  0  0  0  0  0  0  0
    2.6142  -11.4043   18.8349 C   0  0  0  0  0  0  0  0  0  0  0  0
    2.0483   -9.3576   16.5729 N   0  0  0  0  0  0  0  0  0  0  0  0
   10.7297   -4.1683   20.1235 C   0  0  0  0  0  0  0  0  0  0  0  0
    2.1058  -10.9654   18.2170 C   0  0  0  0  0  0  0  0  0  0  0  0
    6.3737   -7.4824   15.8485 C   0  0  0  0  0  0  0  0  0  0  0  0
  1 19  1  0
  2 24  4  0
  2 28  4  0
  3 19  2  0
  4 26  4  0
  4 33  4  0
  5 20  4  0
  5 27  4  0
  6  8  1  0
  6 21  1  0
  7 13  4  0
  7 25  4  0
  8 16  1  0
  8 17  1  0
  9 14  4  0
  9 17  4  0
 10 14  4  0
 10 32  4  0
 11 12  1  0
 11 20  4  0
 11 29  4  0
 12 30  1  0
 13 14  4  0
 13 24  4  0
 15 21  1  0
 15 34  1  0
 16 17  1  0
 16 34  1  0
 18 21  1  0
 18 23  4  0
 19 32  1  0
 22 27  4  0
 22 29  4  0
 23 31  4  0
 25 32  4  0
 26 31  4  0
 30 33  4  0
M  END
$$$$

 Created by Python create_sdf_string function

 34101  0  0  0  0  0  0  0  0999 V2000
   10.8770   -3.0161   22.2618 Cl  0  0  0  0  0  0  0  0  0  0  0  0
    8.3943   -5.0211   15.9088 N   0  0  0  0  0  0  0  0  0  0  0  0
   11.0229   -4.9008   21.9781 O   0  0  0  0  0  0  0  0  0  0  0  0
    1.6445  -10.5151   18.4261 N   0  0  0  0  0  0  0  0  0  0  0  0
    1.2804  -13.1651   22.4873 F   0  0  0  0  0  0  0  0  0  0  0  0
    5.8663   -9.2798   17.0021 C   0  0  0  0  0  0  0  0  0  0  0  0
    7.8092   -8.4281   16.3509 C   0  0  0  0  0  0  0  0  0  0  0  0
   10.2473   -5.9678   17.6766 C   0  0  0  0  0  0  0  0  0  0  0  0
   10.5829   -5.5377   19.3875 F   0  0  0  0  0  0  0  0  0  0  0  0
    1.8081  -12.0339   20.8640 C   0  0  0  0  0  0  0  0  0  0  0  0
    2.8331  -12.3130   19.7199 O   0  0  0  0  0  0  0  0  0  0  0  0
   10.0167   -4.4098   17.3750 C   0  0  0  0  0  0  0  0  0  0  0  0
    9.6299   -5.3721   18.0394 C   0  0  0  0  0  0  0  0  0  0  0  0
    5.0007   -8.2348   17.1782 N   0  0  0  0  0  0  0  0  0  0  0  0
    7.8454   -7.7943   16.7199 C   0  0  0  0  0  0  0  0  0  0  0  0
    8.5456   -6.7815   16.8068 C   0  0  0  0  0  0  0  0  0  0  0  0
    3.6126   -9.1238   17.8878 N   0  0  0  0  0  0  0  0  0  0  0  0
   11.3186   -4.2541   21.9867 C   0  0  0  0  0  0  0  0  0  0  0  0
    1.9713  -12.7994   21.8839 C   0  0  0  0  0  0  0  0  0  0  0  0
    6.5631   -9.7285   16.5667 O   0  0  0  0  0  0  0  0  0  0  0  0
   -0.3745  -11.4411   21.7301 O   0  0  0  0  0  0  0  0  0  0  0  0
    2.8310   -9.1554   17.2566 Cl  0  0  0  0  0  0  0  0  0  0  0  0
    9.7675   -4.5956   16.3628 O   0  0  0  0  0  0  0  0  0  0  0  0
   10.3952   -2.9380   19.0701 C   0  0  0  0  0  0  0  0  0  0  0  0
    0.2078   -9.9350   16.6232 N   0  0  0  0  0  0  0  0  0  0  0  0
    0.1010  -12.0120   22.3467 C   0  0  0  0  0  0  0  0  0  0  0  0
    0.1614  -11.2376   20.9250 C   0  0  0  0  0  0  0  0  0  0  0  0
    2.3900  -11.4624   19.1007 C   0  0  0  0  0  0  0  0  0  0  0  0
   10.6286   -4.0900   20.0751 C   0  0  0  0  0  0  0  0  0  0  0  0
    2.1844  -10.9106   18.2308 C   0  0  0  0  0  0  0  0  0  0  0  0
   10.6643   -3.3236   17.8110 He  0  0  0  0  0  0  0  0  0  0  0  0
    8.5224   -6.4151   16.1571 He  0  0  0  0  0  0  0  0  0  0  0  0
    2.5027   -9.9692   16.3960 He  0  0  0  0  0  0  0  0  0  0  0  0
    6.4325   -7.3379   15.9699 He  0  0  0  0  0  0  0  0  0  0  0  0
  1 14  4  0
  1 18  1  0
  2  6  3  0
  2  7  3  0
  2 17  2  0
  2 20  2  0
  2 23  4  0
  2 25  4  0
  3  4  1  0
  3  5  2  0
  3 10  3  0
  3 15  2  0
  3 17  3  0
  3 18  1  0
  3 25  1  0
  3 26  2  0
  3 28  2  0
  4  7  4  0
  4 10  4  0
  4 13  2  0
  4 17  3  0
  4 20  3  0
  4 25  4  0
  5  7  3  0
  5 11  3  0
  5 17  4  0
  5 19  1  0
  5 20  4  0
  5 26  4  0
  5 28  4  0
  6  7  1  0
  6  9  4  0
  6 13  1  0
  6 18  4  0
  6 21  1  0
  6 25  1  0
  6 29  3  0
  7  8  2  0
  7 11  3  0
  7 13  4  0
  7 15  1  0
  7 16  2  0
  7 20  3  0
  7 30  1  0
  8  9  3  0
  8 13  1  0
  8 16  1  0
  8 17  4  0
  8 20  1  0
  8 26  2  0
  9 10  4  0
  9 13  4  0
  9 25  4  0
  9 27  1  0
  9 29  4  0
 10 15  1  0
 10 19  4  0
 10 20  1  0
 10 24  3  0
 10 26  1  0
 10 27  4  0
 10 28  1  0
 11 20  1  0
 11 24  4  0
 11 26  2  0
 11 29  3  0
 12 13  4  0
 12 14  2  0
 12 20  2  0
 12 23  4  0
 12 24  2  0
 12 29  3  0
 14 15  4  0
 14 17  4  0
 14 19  2  0
 15 21  3  0
 15 22  3  0
 16 18  4  0
 16 24  4  0
 17 22  4  0
 17 25  1  0
 17 26  1  0
 17 30  3  0
 18 29  1  0
 19 20  2  0
 19 24  2  0
 19 25  1  0
 19 27  3  0
 19 29  2  0
 20 21  1  0
 20 25  1  0
 20 26  4  0
 20 29  3  0
 21 25  1  0
 21 26  4  0
 21 27  4  0
 22 26  1  0
 23 25  3  0
 24 29  4  0
 24 30  4  0
 28 30  4  0
M  END
$$$$

 Created by Python create_sdf_string function

 34 38  0  0  0  0  0  0  0  0999 V2000
   10.8484   -2.9536   22.0937 O   0  0  0  0  0  0  0  0  0  0  0  0
    8.5013   -5.0535   15.7065 N   0  0  0  0  0  0  0  0  0  0  0  0
   11.0309   -5.1572   22.2324 O   0  0  0  0  0  0  0  0  0  0  0  0
    1.1829  -10.6093   17.7924 N   0  0  0  0  0  0  0  0  0  0  0  0
    1.1554  -12.9155   22.6104 C   0  0  0  0  0  0  0  0  0  0  0  0
    5.8281   -9.1865   17.0070 C   0  0  0  0  0  0  0  0  0  0  0  0
   10.6694   -3.2095   17.9047 C   0  0  0  0  0  0  0  0  0  0  0  0
    7.7217   -8.6550   16.7945 C   0  0  0  0  0  0  0  0  0  0  0  0
    9.5485   -6.7539   17.8373 C   0  0  0  0  0  0  0  0  0  0  0  0
   10.3404   -5.3926   19.5914 C   0  0  0  0  0  0  0  0  0  0  0  0
    1.6262  -11.8803   20.5059 C   0  0  0  0  0  0  0  0  0  0  0  0
    3.3698  -12.2428   19.1207 O   0  0  0  0  0  0  0  0  0  0  0  0
   10.0257   -4.3131   17.4510 C   0  0  0  0  0  0  0  0  0  0  0  0
    9.9644   -5.4528   18.2608 C   0  0  0  0  0  0  0  0  0  0  0  0
    4.8982   -8.2799   16.8254 N   0  0  0  0  0  0  0  0  0  0  0  0
    7.4524   -8.0751   16.7225 C   0  0  0  0  0  0  0  0  0  0  0  0
    8.6344   -6.9274   17.0197 C   0  0  0  0  0  0  0  0  0  0  0  0
    3.5100  -10.0245   17.7967 N   0  0  0  0  0  0  0  0  0  0  0  0
   10.9704   -4.1178   21.5464 C   0  0  0  0  0  0  0  0  0  0  0  0
    1.9917  -12.7286   21.4630 C   0  0  0  0  0  0  0  0  0  0  0  0
    6.3078   -9.7731   16.7524 C   0  0  0  0  0  0  0  0  0  0  0  0
   -0.3849  -11.4067   21.8415 C   0  0  0  0  0  0  0  0  0  0  0  0
    3.2071   -9.3260   17.1169 C   0  0  0  0  0  0  0  0  0  0  0  0
    9.4236   -4.2964   16.1701 C   0  0  0  0  0  0  0  0  0  0  0  0
   10.9349   -3.1105   19.2814 C   0  0  0  0  0  0  0  0  0  0  0  0
    0.9851   -9.7996   16.7813 N   0  0  0  0  0  0  0  0  0  0  0  0
    0.0342  -12.2879   22.7478 C   0  0  0  0  0  0  0  0  0  0  0  0
    8.0212   -6.1613   16.1710 C   0  0  0  0  0  0  0  0  0  0  0  0
    0.4226  -11.2158   20.7541 C   0  0  0  0  0  0  0  0  0  0  0  0
    2.4494  -11.6418   19.4158 C   0  0  0  0  0  0  0  0  0  0  0  0
    2.1457   -9.1526   16.6309 C   0  0  0  0  0  0  0  0  0  0  0  0
   10.7872   -4.1645   20.1141 C   0  0  0  0  0  0  0  0  0  0  0  0
    2.2593  -10.9186   18.4405 C   0  0  0  0  0  0  0  0  0  0  0  0
    6.2252   -7.2224   16.2581 C   0  0  0  0  0  0  0  0  0  0  0  0
  1 19  1  0
  2 24  4  0
  2 28  4  0
  3 19  2  0
  4 26  4  0
  4 33  4  0
  5 20  4  0
  5 27  4  0
  6  8  1  0
  6 15  1  0
  6 21  1  0
  7 13  4  0
  7 25  4  0
  8 16  1  0
  9 14  4  0
  9 17  1  0
 10 14  4  0
 10 32  4  0
 11 20  4  0
 11 29  4  0
 11 30  1  0
 12 30  2  0
 13 14  4  0
 13 24  4  0
 15 23  1  0
 15 34  1  0
 16 34  1  0
 17 28  1  0
 18 23  4  0
 18 33  4  0
 19 32  1  0
 22 27  4  0
 22 29  4  0
 23 31  4  0
 25 32  4  0
 26 31  4  0
 28 34  1  0
 30 33  1  0
M  END
$$$$

 Created by Python create_sdf_string function

 34 77  0  0  0  0  0  0  0  0999 V2000
   10.8178   -3.2525   22.1751 O   0  0  0  0  0  0  0  0  0  0  0  0
    8.7790   -4.8026   15.6279 N   0  0  0  0  0  0  0  0  0  0  0  0
   11.3543   -5.3724   22.2467 S   0  0  0  0  0  0  0  0  0  0  0  0
    2.0035  -11.0219   16.8821 N   0  0  0  0  0  0  0  0  0  0  0  0
    5.7744   -9.6886   17.0348 S   0  0  0  0  0  0  0  0  0  0  0  0
   10.5664   -2.8260   18.1812 C   0  0  0  0  0  0  0  0  0  0  0  0
    7.2197   -8.7411   16.6923 O   0  0  0  0  0  0  0  0  0  0  0  0
   10.5402   -5.5915   19.7753 O   0  0  0  0  0  0  0  0  0  0  0  0
    1.4732  -12.1978   20.4286 C   0  0  0  0  0  0  0  0  0  0  0  0
    2.9501  -10.9401   18.4677 O   0  0  0  0  0  0  0  0  0  0  0  0
    9.9138   -4.7112   17.3612 C   0  0  0  0  0  0  0  0  0  0  0  0
    9.8577   -4.8315   17.7029 C   0  0  0  0  0  0  0  0  0  0  0  0
    5.4191   -8.2568   16.4707 N   0  0  0  0  0  0  0  0  0  0  0  0
    7.3964   -8.1303   16.9951 C   0  0  0  0  0  0  0  0  0  0  0  0
    8.7055   -6.6437   17.2213 C   0  0  0  0  0  0  0  0  0  0  0  0
   11.0899   -4.1666   21.7609 C   0  0  0  0  0  0  0  0  0  0  0  0
    2.1566  -12.8948   21.1673 C   0  0  0  0  0  0  0  0  0  0  0  0
    6.6082   -9.5064   17.2808 N   0  0  0  0  0  0  0  0  0  0  0  0
   -0.7572  -11.2823   21.6413 C   0  0  0  0  0  0  0  0  0  0  0  0
    3.4087   -9.3837   17.0165 C   0  0  0  0  0  0  0  0  0  0  0  0
    9.1987   -4.5037   16.6311 C   0  0  0  0  0  0  0  0  0  0  0  0
    8.4156   -6.4215   15.7990 N   0  0  0  0  0  0  0  0  0  0  0  0
    0.4363  -10.9966   20.6970 C   0  0  0  0  0  0  0  0  0  0  0  0
    2.2860   -8.9744   16.6922 C   0  0  0  0  0  0  0  0  0  0  0  0
   10.6028   -4.1941   20.0657 C   0  0  0  0  0  0  0  0  0  0  0  0
    2.1826  -10.8551   18.3675 C   0  0  0  0  0  0  0  0  0  0  0  0
    6.4961   -7.2539   16.1132 C   0  0  0  0  0  0  0  0  0  0  0  0
    1.2160  -12.8087   22.5102 He  0  0  0  0  0  0  0  0  0  0  0  0
   10.0862   -6.6502   17.6293 He  0  0  0  0  0  0  0  0  0  0  0  0
    3.6542   -9.9447   17.3110 He  0  0  0  0  0  0  0  0  0  0  0  0
   11.2424   -2.9144   19.5110 He  0  0  0  0  0  0  0  0  0  0  0  0
    1.1803  -10.4824   16.8582 He  0  0  0  0  0  0  0  0  0  0  0  0
   -0.2269  -12.1558   22.8308 He  0  0  0  0  0  0  0  0  0  0  0  0
    2.3460  -11.4526   19.5541 He  0  0  0  0  0  0  0  0  0  0  0  0
  1 13  3  0
  1 16  1  0
  1 18  3  0
  1 22  4  0
  1 24  1  0
  2  4  1  0
  2  6  4  0
  2 10  2  0
  2 19  1  0
  2 21  4  0
  2 25  2  0
  3 12  3  0
  3 15  4  0
  3 16  2  0
  3 17  3  0
  3 22  2  0
  3 26  3  0
  4  5  4  0
  4 12  1  0
  4 24  1  0
  4 26  1  0
  5  7  1  0
  5 10  3  0
  5 12  1  0
  5 13  3  0
  5 15  2  0
  5 17  2  0
  5 18  1  0
  5 20  1  0
  5 21  4  0
  5 26  3  0
  6 10  1  0
  6 11  4  0
  7 10  1  0
  7 14  1  0
  7 22  1  0
  7 26  3  0
  7 27  1  0
  8 10  1  0
  8 14  1  0
  8 22  1  0
  8 25  4  0
  8 27  3  0
  9 15  2  0
  9 17  4  0
  9 25  4  0
  9 27  2  0
 10 15  1  0
 10 19  4  0
 10 21  2  0
 11 12  4  0
 11 18  1  0
 11 21  1  0
 12 14  4  0
 12 16  2  0
 13 16  4  0
 13 18  3  0
 13 22  2  0
 13 25  2  0
 13 27  2  0
 14 19  3  0
 14 22  1  0
 14 24  4  0
 14 27  1  0
 15 22  1  0
 16 21  1  0
 16 25  1  0
 18 26  3  0
 18 27  3  0
 19 23  4  0
 20 22  4  0
 20 24  2  0
 20 26  4  0
 21 22  1  0
 22 27  4  0
 23 24  1  0
 24 25  1  0
M  END
$$$$

 Created by Python create_sdf_string function

 34 38  0  0  0  0  0  0  0  0999 V2000
   10.8378   -3.1325   22.2948 O   0  0  0  0  0  0  0  0  0  0  0  0
    8.6655   -4.4690   15.7273 N   0  0  0  0  0  0  0  0  0  0  0  0
   11.2310   -5.2678   22.2941 O   0  0  0  0  0  0  0  0  0  0  0  0
    1.3805  -10.3780   17.3327 N   0  0  0  0  0  0  0  0  0  0  0  0
    1.1304  -12.8708   22.4919 C   0  0  0  0  0  0  0  0  0  0  0  0
    5.2277   -9.0836   16.9478 C   0  0  0  0  0  0  0  0  0  0  0  0
   10.6472   -3.1375   18.0610 C   0  0  0  0  0  0  0  0  0  0  0  0
    7.5751   -8.8579   16.8911 C   0  0  0  0  0  0  0  0  0  0  0  0
    9.4668   -6.5935   17.8386 N   0  0  0  0  0  0  0  0  0  0  0  0
   10.5073   -5.4223   19.6794 C   0  0  0  0  0  0  0  0  0  0  0  0
    1.4363  -11.9141   20.3384 C   0  0  0  0  0  0  0  0  0  0  0  0
    3.5905  -11.1712   19.0113 N   0  0  0  0  0  0  0  0  0  0  0  0
   10.0489   -4.2419   17.5993 C   0  0  0  0  0  0  0  0  0  0  0  0
   10.0636   -5.4024   18.3885 C   0  0  0  0  0  0  0  0  0  0  0  0
    5.1988   -7.9522   16.3405 C   0  0  0  0  0  0  0  0  0  0  0  0
    7.5725   -7.8999   16.7071 C   0  0  0  0  0  0  0  0  0  0  0  0
    8.6322   -6.7101   16.9164 C   0  0  0  0  0  0  0  0  0  0  0  0
    3.5552  -10.3038   17.8936 N   0  0  0  0  0  0  0  0  0  0  0  0
   11.0048   -4.2235   21.6885 C   0  0  0  0  0  0  0  0  0  0  0  0
    1.9123  -12.7054   21.3932 C   0  0  0  0  0  0  0  0  0  0  0  0
    6.3348   -9.5546   17.2718 C   0  0  0  0  0  0  0  0  0  0  0  0
   -0.4456  -11.2611   21.7884 C   0  0  0  0  0  0  0  0  0  0  0  0
    3.6994   -9.4148   17.0056 C   0  0  0  0  0  0  0  0  0  0  0  0
    9.4080   -4.2205   16.3093 C   0  0  0  0  0  0  0  0  0  0  0  0
   10.9561   -3.0737   19.4413 C   0  0  0  0  0  0  0  0  0  0  0  0
    1.1377   -9.8841   16.8369 C   0  0  0  0  0  0  0  0  0  0  0  0
    0.0283  -12.1624   22.7142 C   0  0  0  0  0  0  0  0  0  0  0  0
    8.1228   -6.3877   16.0507 N   0  0  0  0  0  0  0  0  0  0  0  0
    0.2121  -11.0952   20.6418 C   0  0  0  0  0  0  0  0  0  0  0  0
    2.0206  -12.0412   19.0260 C   0  0  0  0  0  0  0  0  0  0  0  0
    2.4699   -9.0820   16.4070 C   0  0  0  0  0  0  0  0  0  0  0  0
   10.8477   -4.1964   20.1998 C   0  0  0  0  0  0  0  0  0  0  0  0
    2.2947  -11.0176   18.3132 C   0  0  0  0  0  0  0  0  0  0  0  0
    6.1253   -7.2087   16.0753 C   0  0  0  0  0  0  0  0  0  0  0  0
  1 19  1  0
  2 24  4  0
  3 19  2  0
  4 26  1  0
  4 33  1  0
  5 20  4  0
  5 27  4  0
  6 15  1  0
  6 21  1  0
  6 23  1  0
  7 13  4  0
  7 25  4  0
  8 16  1  0
  8 21  1  0
  9 14  4  0
  9 17  4  0
 10 14  4  0
 10 32  4  0
 11 20  4  0
 11 29  4  0
 11 30  1  0
 12 18  2  0
 12 33  2  0
 13 14  4  0
 13 24  4  0
 15 34  2  0
 16 17  1  0
 16 28  1  0
 17 28  1  0
 18 23  1  0
 18 33  4  0
 19 32  1  0
 22 27  4  0
 22 29  4  0
 23 31  2  0
 25 32  4  0
 26 31  1  0
 30 33  1  0
M  END
$$$$

 Created by Python create_sdf_string function

 34 75  0  0  0  0  0  0  0  0999 V2000
   10.9314   -3.2844   22.0496 O   0  0  0  0  0  0  0  0  0  0  0  0
    8.4543   -4.0906   15.9066 N   0  0  0  0  0  0  0  0  0  0  0  0
   11.1814   -5.2586   22.2792 O   0  0  0  0  0  0  0  0  0  0  0  0
    2.0771  -11.2549   18.7047 N   0  0  0  0  0  0  0  0  0  0  0  0
    1.2273  -13.1628   22.5750 C   0  0  0  0  0  0  0  0  0  0  0  0
    4.6486   -8.8504   15.9552 C   0  0  0  0  0  0  0  0  0  0  0  0
   10.3116   -2.9580   17.8343 C   0  0  0  0  0  0  0  0  0  0  0  0
    8.7222   -7.0179   17.4717 N   0  0  0  0  0  0  0  0  0  0  0  0
   10.3006   -5.3957   19.6342 C   0  0  0  0  0  0  0  0  0  0  0  0
    1.4705  -11.7529   20.5401 C   0  0  0  0  0  0  0  0  0  0  0  0
    3.0673  -10.3224   19.9749 C   0  0  0  0  0  0  0  0  0  0  0  0
    9.9867   -3.7116   17.6198 C   0  0  0  0  0  0  0  0  0  0  0  0
   10.0475   -5.6776   18.6409 C   0  0  0  0  0  0  0  0  0  0  0  0
    6.3898   -6.8032   15.9325 C   0  0  0  0  0  0  0  0  0  0  0  0
    7.3953   -7.5544   17.3935 C   0  0  0  0  0  0  0  0  0  0  0  0
    8.9296   -6.6107   16.5747 Cl  0  0  0  0  0  0  0  0  0  0  0  0
    2.5123   -9.0008   17.1976 S   0  0  0  0  0  0  0  0  0  0  0  0
   11.1703   -4.2960   21.7162 C   0  0  0  0  0  0  0  0  0  0  0  0
    2.0908  -12.5221   21.3422 C   0  0  0  0  0  0  0  0  0  0  0  0
   -0.7080  -11.3217   21.7659 C   0  0  0  0  0  0  0  0  0  0  0  0
    3.5290   -9.2371   16.5083 C   0  0  0  0  0  0  0  0  0  0  0  0
   11.3277   -3.2407   19.6138 C   0  0  0  0  0  0  0  0  0  0  0  0
    0.3104  -12.0536   22.2471 C   0  0  0  0  0  0  0  0  0  0  0  0
    7.7747   -5.7921   16.4986 C   0  0  0  0  0  0  0  0  0  0  0  0
    2.5157  -12.1637   18.5523 C   0  0  0  0  0  0  0  0  0  0  0  0
   10.4289   -3.6974   20.2271 C   0  0  0  0  0  0  0  0  0  0  0  0
    2.4262  -11.0586   18.2115 C   0  0  0  0  0  0  0  0  0  0  0  0
    8.4389   -8.4600   17.8842 He  0  0  0  0  0  0  0  0  0  0  0  0
    6.1535   -9.2923   16.4486 He  0  0  0  0  0  0  0  0  0  0  0  0
    9.4732   -4.1628   16.3415 He  0  0  0  0  0  0  0  0  0  0  0  0
    1.5740   -8.6133   16.1172 He  0  0  0  0  0  0  0  0  0  0  0  0
    0.2551  -10.8369   20.0963 He  0  0  0  0  0  0  0  0  0  0  0  0
    1.9027   -9.1685   15.6431 He  0  0  0  0  0  0  0  0  0  0  0  0
    5.9602   -7.0397   16.1520 He  0  0  0  0  0  0  0  0  0  0  0  0
  1  3  1  0
  1  6  1  0
  1  8  4  0
  1 11  1  0
  1 13  1  0
  1 15  2  0
  1 18  1  0
  2  8  4  0
  2 20  3  0
  3  8  3  0
  3 18  2  0
  3 19  1  0
  3 26  1  0
  4  5  1  0
  4  8  1  0
  4  9  3  0
  4 15  4  0
  4 16  2  0
  4 26  4  0
  5  6  3  0
  5 11  4  0
  5 19  4  0
  5 23  4  0
  6  9  4  0
  6 14  1  0
  6 15  4  0
  6 16  4  0
  6 26  1  0
  7  8  4  0
  7 12  4  0
  7 20  3  0
  8  9  2  0
  8 13  1  0
  8 16  4  0
  8 26  4  0
  9 13  4  0
  9 14  3  0
  9 15  3  0
  9 17  2  0
  9 26  4  0
 10 17  1  0
 10 19  4  0
 10 25  1  0
 10 27  3  0
 11 17  2  0
 12 13  4  0
 12 18  3  0
 13 14  3  0
 13 17  2  0
 13 21  4  0
 14 16  1  0
 14 20  3  0
 15 16  1  0
 15 17  1  0
 15 18  2  0
 15 24  1  0
 16 18  4  0
 16 24  1  0
 17 19  1  0
 17 20  2  0
 17 21  1  0
 17 26  4  0
 17 27  4  0
 18 21  3  0
 18 22  1  0
 18 25  2  0
 18 26  1  0
 19 20  3  0
 21 24  3  0
 22 26  4  0
 23 24  2  0
 23 27  4  0
 24 25  2  0
 24 26  4  0
 25 27  1  0
M  END
$$$$

 Created by Python create_sdf_string function

 34 33  0  0  0  0  0  0  0  0999 V2000
   11.0538   -3.0949   22.3116 O   0  0  0  0  0  0  0  0  0  0  0  0
    8.6400   -4.2452   15.6659 N   0  0  0  0  0  0  0  0  0  0  0  0
   11.0606   -5.3012   22.3386 O   0  0  0  0  0  0  0  0  0  0  0  0
    1.2482  -10.3063   17.5336 N   0  0  0  0  0  0  0  0  0  0  0  0
    1.1927  -12.8243   22.4650 C   0  0  0  0  0  0  0  0  0  0  0  0
    4.7299   -8.6068   16.1899 C   0  0  0  0  0  0  0  0  0  0  0  0
   10.6753   -3.0794   18.0730 C   0  0  0  0  0  0  0  0  0  0  0  0
    8.0841   -8.5262   17.5183 C   0  0  0  0  0  0  0  0  0  0  0  0
    9.2114   -6.5967   17.7928 N   0  0  0  0  0  0  0  0  0  0  0  0
   10.3424   -5.3968   19.6125 C   0  0  0  0  0  0  0  0  0  0  0  0
    1.4599  -11.9063   20.3105 C   0  0  0  0  0  0  0  0  0  0  0  0
    3.8379  -10.5979   18.8118 O   0  0  0  0  0  0  0  0  0  0  0  0
   10.0099   -4.1567   17.5877 C   0  0  0  0  0  0  0  0  0  0  0  0
    9.8419   -5.3339   18.3250 C   0  0  0  0  0  0  0  0  0  0  0  0
    6.1351   -7.4125   16.0124 C   0  0  0  0  0  0  0  0  0  0  0  0
    7.8409   -7.7842   17.1461 C   0  0  0  0  0  0  0  0  0  0  0  0
    8.3499   -6.3875   16.8880 C   0  0  0  0  0  0  0  0  0  0  0  0
    3.3720  -10.0366   17.6584 C   0  0  0  0  0  0  0  0  0  0  0  0
   10.9915   -4.2329   21.6467 C   0  0  0  0  0  0  0  0  0  0  0  0
    1.9597  -12.7063   21.3162 C   0  0  0  0  0  0  0  0  0  0  0  0
    6.1972   -9.0452   16.9694 N   0  0  0  0  0  0  0  0  0  0  0  0
   -0.4228  -11.3327   21.7112 C   0  0  0  0  0  0  0  0  0  0  0  0
    3.7847   -9.1672   16.6572 C   0  0  0  0  0  0  0  0  0  0  0  0
    9.3518   -3.9680   16.2883 C   0  0  0  0  0  0  0  0  0  0  0  0
   10.9602   -3.1002   19.5074 C   0  0  0  0  0  0  0  0  0  0  0  0
    1.3667   -9.2942   16.5230 C   0  0  0  0  0  0  0  0  0  0  0  0
    0.0517  -12.1821   22.6123 C   0  0  0  0  0  0  0  0  0  0  0  0
    7.8885   -6.0001   16.2672 C   0  0  0  0  0  0  0  0  0  0  0  0
    0.2983  -11.1742   20.5057 C   0  0  0  0  0  0  0  0  0  0  0  0
    2.2672  -11.8595   18.9909 C   0  0  0  0  0  0  0  0  0  0  0  0
    2.0767   -9.0127   16.0393 C   0  0  0  0  0  0  0  0  0  0  0  0
   10.7602   -4.2113   20.2366 C   0  0  0  0  0  0  0  0  0  0  0  0
    2.3504  -10.7381   18.1708 C   0  0  0  0  0  0  0  0  0  0  0  0
    6.0044   -7.0900   15.8743 C   0  0  0  0  0  0  0  0  0  0  0  0
  1 19  1  0
  2 24  4  0
  3 19  2  0
  4 26  4  0
  4 33  4  0
  5 20  4  0
  5 27  4  0
  6 15  1  0
  6 23  1  0
  7 13  4  0
  7 25  4  0
  8 16  1  0
  9 14  4  0
  9 17  4  0
 10 14  4  0
 10 32  4  0
 11 20  4  0
 11 29  4  0
 11 30  1  0
 12 18  2  0
 13 14  4  0
 13 24  4  0
 15 34  4  0
 16 17  1  0
 17 28  1  0
 18 23  1  0
 18 33  4  0
 19 32  1  0
 22 27  4  0
 22 29  4  0
 25 32  4  0
 26 31  4  0
 30 33  1  0
M  END
$$$$

 Created by Python create_sdf_string function

 34 75  0  0  0  0  0  0  0  0999 V2000
   11.2183   -2.9673   22.5728 O   0  0  0  0  0  0  0  0  0  0  0  0
   11.3526   -5.4977   22.3290 O   0  0  0  0  0  0  0  0  0  0  0  0
    0.9407  -13.0217   22.5313 C   0  0  0  0  0  0  0  0  0  0  0  0
   10.8561   -3.3003   17.8926 C   0  0  0  0  0  0  0  0  0  0  0  0
    7.9786   -8.4368   17.0979 P   0  0  0  0  0  0  0  0  0  0  0  0
    8.9286   -6.0556   17.6610 F   0  0  0  0  0  0  0  0  0  0  0  0
   10.3974   -5.4222   19.9448 N   0  0  0  0  0  0  0  0  0  0  0  0
    1.5401  -12.1897   20.0976 C   0  0  0  0  0  0  0  0  0  0  0  0
   10.0848   -4.1752   17.4738 C   0  0  0  0  0  0  0  0  0  0  0  0
   10.0801   -5.2809   18.3229 C   0  0  0  0  0  0  0  0  0  0  0  0
    6.7347   -6.3127   14.9498 C   0  0  0  0  0  0  0  0  0  0  0  0
    7.9421   -6.5624   16.5798 C   0  0  0  0  0  0  0  0  0  0  0  0
    2.5387  -10.3472   18.2139 N   0  0  0  0  0  0  0  0  0  0  0  0
   11.1220   -4.2932   22.0636 C   0  0  0  0  0  0  0  0  0  0  0  0
    5.7450   -8.2998   17.0029 O   0  0  0  0  0  0  0  0  0  0  0  0
   -0.0310  -11.2691   21.4677 O   0  0  0  0  0  0  0  0  0  0  0  0
    3.6762   -8.7647   16.4010 C   0  0  0  0  0  0  0  0  0  0  0  0
    9.4213   -3.8106   16.1432 C   0  0  0  0  0  0  0  0  0  0  0  0
   10.4369   -3.4063   19.9647 C   0  0  0  0  0  0  0  0  0  0  0  0
    1.7173   -9.1744   17.2545 C   0  0  0  0  0  0  0  0  0  0  0  0
   -0.1194  -12.1640   22.5379 C   0  0  0  0  0  0  0  0  0  0  0  0
    7.5648   -6.6902   15.5322 C   0  0  0  0  0  0  0  0  0  0  0  0
    0.6292  -10.7680   20.6123 I   0  0  0  0  0  0  0  0  0  0  0  0
    2.0728  -12.0365   18.8386 C   0  0  0  0  0  0  0  0  0  0  0  0
    2.4496   -9.0713   16.1233 F   0  0  0  0  0  0  0  0  0  0  0  0
   10.6511   -3.9021   20.5614 C   0  0  0  0  0  0  0  0  0  0  0  0
    2.1360  -10.8236   17.9426 P   0  0  0  0  0  0  0  0  0  0  0  0
    6.2068   -6.8369   15.5136 C   0  0  0  0  0  0  0  0  0  0  0  0
    8.4494   -4.1489   15.5417 He  0  0  0  0  0  0  0  0  0  0  0  0
    1.8598  -10.5780   16.7098 He  0  0  0  0  0  0  0  0  0  0  0  0
    4.1860   -9.0298   15.3518 He  0  0  0  0  0  0  0  0  0  0  0  0
    3.0378  -10.3058   18.7471 He  0  0  0  0  0  0  0  0  0  0  0  0
    7.0777   -7.8493   17.3223 He  0  0  0  0  0  0  0  0  0  0  0  0
    1.8085  -12.2877   21.3038 He  0  0  0  0  0  0  0  0  0  0  0  0
  1  8  3  0
  1 11  3  0
  1 14  4  0
  1 20  2  0
  1 22  4  0
  1 24  1  0
  1 27  1  0
  2 14  2  0
  3  9  3  0
  3 11  3  0
  3 21  4  0
  3 23  4  0
  4  9  4  0
  4 12  3  0
  4 14  2  0
  4 18  1  0
  4 19  4  0
  4 20  2  0
  4 25  1  0
  5 10  2  0
  5 11  4  0
  5 15  3  0
  5 18  1  0
  5 20  2  0
  5 28  4  0
  6 10  4  0
  6 12  4  0
  7 11  2  0
  7 14  4  0
  7 22  2  0
  7 26  4  0
  8 15  1  0
  8 20  1  0
  8 22  1  0
  8 23  4  0
  8 24  1  0
  9 10  4  0
  9 15  3  0
  9 18  4  0
  9 20  2  0
 10 14  3  0
 10 27  1  0
 11 14  2  0
 11 16  4  0
 11 19  1  0
 11 21  1  0
 11 27  3  0
 12 13  4  0
 12 20  2  0
 12 26  3  0
 13 14  3  0
 13 17  1  0
 13 18  1  0
 13 21  1  0
 13 26  2  0
 14 15  3  0
 14 26  4  0
 15 18  4  0
 15 21  3  0
 15 22  4  0
 16 21  4  0
 16 23  4  0
 16 25  2  0
 17 20  1  0
 17 22  1  0
 17 25  2  0
 18 20  1  0
 19 23  2  0
 19 26  4  0
 19 28  2  0
 20 24  3  0
 22 24  2  0
 22 25  4  0
 24 27  1  0
 25 27  2  0
M  END
$$$$

 Created by Python create_sdf_string function

 34 31  0  0  0  0  0  0  0  0999 V2000
   11.0732   -3.1377   22.4511 O   0  0  0  0  0  0  0  0  0  0  0  0
    8.5929   -4.3769   15.6683 C   0  0  0  0  0  0  0  0  0  0  0  0
   11.1705   -5.3355   22.3806 O   0  0  0  0  0  0  0  0  0  0  0  0
    1.2412  -10.5238   17.2928 N   0  0  0  0  0  0  0  0  0  0  0  0
    1.0672  -12.8632   22.4028 C   0  0  0  0  0  0  0  0  0  0  0  0
    4.5411   -8.3846   15.9025 C   0  0  0  0  0  0  0  0  0  0  0  0
   10.6767   -3.0699   18.1902 C   0  0  0  0  0  0  0  0  0  0  0  0
    7.7732   -8.5223   17.4382 C   0  0  0  0  0  0  0  0  0  0  0  0
    9.0900   -6.3471   17.7518 N   0  0  0  0  0  0  0  0  0  0  0  0
   10.2255   -5.3914   19.7441 C   0  0  0  0  0  0  0  0  0  0  0  0
    1.4438  -11.9347   20.2640 C   0  0  0  0  0  0  0  0  0  0  0  0
    3.3105  -10.7584   18.3766 N   0  0  0  0  0  0  0  0  0  0  0  0
    9.9853   -4.1518   17.6739 C   0  0  0  0  0  0  0  0  0  0  0  0
    9.7654   -5.2784   18.3706 C   0  0  0  0  0  0  0  0  0  0  0  0
    6.9370   -6.3716   15.4791 C   0  0  0  0  0  0  0  0  0  0  0  0
    7.1878   -7.9484   16.9983 C   0  0  0  0  0  0  0  0  0  0  0  0
    8.3485   -6.2523   16.7807 C   0  0  0  0  0  0  0  0  0  0  0  0
    3.3926  -10.1592   17.7521 N   0  0  0  0  0  0  0  0  0  0  0  0
   11.0133   -4.2776   21.8157 C   0  0  0  0  0  0  0  0  0  0  0  0
    1.8306  -12.7727   21.2352 C   0  0  0  0  0  0  0  0  0  0  0  0
    5.9072   -8.4454   16.9848 C   0  0  0  0  0  0  0  0  0  0  0  0
   -0.3093  -11.1492   21.6595 C   0  0  0  0  0  0  0  0  0  0  0  0
    3.8783   -8.8163   16.4428 C   0  0  0  0  0  0  0  0  0  0  0  0
    9.4519   -4.0436   16.3687 C   0  0  0  0  0  0  0  0  0  0  0  0
   10.9964   -3.1145   19.6140 C   0  0  0  0  0  0  0  0  0  0  0  0
    1.7189   -9.6741   16.6823 C   0  0  0  0  0  0  0  0  0  0  0  0
    0.0153  -12.0653   22.5877 C   0  0  0  0  0  0  0  0  0  0  0  0
    7.1748   -6.9843   16.2088 C   0  0  0  0  0  0  0  0  0  0  0  0
    0.3931  -11.1073   20.5142 C   0  0  0  0  0  0  0  0  0  0  0  0
    2.1916  -12.0599   18.9200 C   0  0  0  0  0  0  0  0  0  0  0  0
    2.4510   -8.7951   16.0853 C   0  0  0  0  0  0  0  0  0  0  0  0
   10.7538   -4.2179   20.3561 C   0  0  0  0  0  0  0  0  0  0  0  0
    1.8672  -11.0712   18.1063 C   0  0  0  0  0  0  0  0  0  0  0  0
    5.9920   -7.0451   15.1968 C   0  0  0  0  0  0  0  0  0  0  0  0
  1 19  1  0
  2 24  4  0
  3 19  2  0
  4 26  4  0
  4 33  4  0
  5 20  4  0
  5 27  4  0
  6 23  1  0
  7 13  4  0
  7 25  4  0
  8 16  1  0
  9 14  4  0
  9 17  4  0
 10 14  4  0
 10 32  4  0
 11 20  4  0
 11 29  4  0
 11 30  1  0
 12 18  4  0
 13 14  4  0
 13 24  4  0
 15 34  4  0
 16 21  4  0
 18 23  1  0
 19 32  1  0
 22 27  4  0
 22 29  4  0
 25 32  4  0
 26 31  1  0
 28 34  4  0
 30 33  1  0
M  END
$$$$

 Created by Python create_sdf_string function

 34 41  0  0  0  0  0  0  0  0999 V2000
   11.1521   -3.3232   22.4387 O   0  0  0  0  0  0  0  0  0  0  0  0
   11.2873   -5.4350   22.2183 O   0  0  0  0  0  0  0  0  0  0  0  0
    1.6414   -9.5992   17.8927 N   0  0  0  0  0  0  0  0  0  0  0  0
    8.6002   -9.0689   17.6959 C   0  0  0  0  0  0  0  0  0  0  0  0
    8.5684   -5.1550   18.0770 C   0  0  0  0  0  0  0  0  0  0  0  0
    1.1143  -11.9067   20.0651 C   0  0  0  0  0  0  0  0  0  0  0  0
    3.4982  -11.6214   18.2998 F   0  0  0  0  0  0  0  0  0  0  0  0
    9.9976   -3.9667   17.5474 C   0  0  0  0  0  0  0  0  0  0  0  0
    9.5764   -5.4213   18.6067 C   0  0  0  0  0  0  0  0  0  0  0  0
    8.2989   -6.1805   16.9352 C   0  0  0  0  0  0  0  0  0  0  0  0
    3.8551   -9.9557   17.1746 N   0  0  0  0  0  0  0  0  0  0  0  0
   11.1139   -4.3002   21.8831 C   0  0  0  0  0  0  0  0  0  0  0  0
   -0.4250  -11.2812   21.7131 C   0  0  0  0  0  0  0  0  0  0  0  0
    3.6524   -9.2082   16.2979 C   0  0  0  0  0  0  0  0  0  0  0  0
    9.8283   -3.8826   16.3307 C   0  0  0  0  0  0  0  0  0  0  0  0
   11.3935   -2.7953   19.4834 C   0  0  0  0  0  0  0  0  0  0  0  0
   -0.1047  -11.8136   22.5523 C   0  0  0  0  0  0  0  0  0  0  0  0
    0.1940  -11.3000   20.6148 C   0  0  0  0  0  0  0  0  0  0  0  0
    2.0741  -12.1087   18.8587 C   0  0  0  0  0  0  0  0  0  0  0  0
   11.1794   -4.1333   20.5572 C   0  0  0  0  0  0  0  0  0  0  0  0
    1.7542  -11.2657   17.7843 C   0  0  0  0  0  0  0  0  0  0  0  0
    6.3727   -6.9071   15.4472 C   0  0  0  0  0  0  0  0  0  0  0  0
    8.6864   -4.6007   15.6099 He  0  0  0  0  0  0  0  0  0  0  0  0
    1.4152  -12.6554   22.3947 He  0  0  0  0  0  0  0  0  0  0  0  0
    4.1336   -7.7462   15.9423 He  0  0  0  0  0  0  0  0  0  0  0  0
   10.8084   -3.1510   18.1389 He  0  0  0  0  0  0  0  0  0  0  0  0
   10.0767   -5.0081   19.6797 He  0  0  0  0  0  0  0  0  0  0  0  0
    7.4011   -6.1493   14.5480 He  0  0  0  0  0  0  0  0  0  0  0  0
    7.0367   -7.5836   16.9852 He  0  0  0  0  0  0  0  0  0  0  0  0
    1.5755  -12.9659   21.5439 He  0  0  0  0  0  0  0  0  0  0  0  0
    6.6937   -8.2768   16.5326 He  0  0  0  0  0  0  0  0  0  0  0  0
    1.8312  -10.3509   17.7068 He  0  0  0  0  0  0  0  0  0  0  0  0
    7.7060   -7.0787   15.8812 He  0  0  0  0  0  0  0  0  0  0  0  0
    3.6293   -8.4843   16.0656 He  0  0  0  0  0  0  0  0  0  0  0  0
  1 12  4  0
  1 20  1  0
  1 22  2  0
  2  3  1  0
  3  6  1  0
  3  7  3  0
  3  9  3  0
  3 17  3  0
  3 18  2  0
  4  9  4  0
  4 11  3  0
  4 12  4  0
  4 14  2  0
  5 10  4  0
  5 11  3  0
  5 17  3  0
  6 10  3  0
  6 18  3  0
  6 19  1  0
  7 11  2  0
  7 13  1  0
  7 17  4  0
  8  9  4  0
  8 12  2  0
  8 15  4  0
  8 16  1  0
  9 14  3  0
 10 11  3  0
 11 14  1  0
 11 20  4  0
 12 20  1  0
 13 17  4  0
 13 18  4  0
 14 21  1  0
 15 17  4  0
 15 21  4  0
 16 20  4  0
 16 22  4  0
 17 19  1  0
 19 21  1  0
 19 22  4  0
M  END
$$$$

 Created by Python create_sdf_string function

 34 37  0  0  0  0  0  0  0  0999 V2000
   11.1845   -3.0930   22.4669 O   0  0  0  0  0  0  0  0  0  0  0  0
    8.8879   -4.6367   15.8823 C   0  0  0  0  0  0  0  0  0  0  0  0
   11.1474   -5.2841   22.3802 O   0  0  0  0  0  0  0  0  0  0  0  0
    1.5655  -10.2677   17.5531 N   0  0  0  0  0  0  0  0  0  0  0  0
    1.1600  -12.6681   22.5371 C   0  0  0  0  0  0  0  0  0  0  0  0
    4.5922   -8.1218   16.0721 N   0  0  0  0  0  0  0  0  0  0  0  0
   11.0092   -2.9171   18.2649 C   0  0  0  0  0  0  0  0  0  0  0  0
    8.2647   -8.8311   17.6041 C   0  0  0  0  0  0  0  0  0  0  0  0
    8.8765   -6.0235   17.8557 N   0  0  0  0  0  0  0  0  0  0  0  0
   10.1744   -5.1870   19.7528 C   0  0  0  0  0  0  0  0  0  0  0  0
    1.1446  -12.0297   20.2303 C   0  0  0  0  0  0  0  0  0  0  0  0
    3.5907  -11.0616   18.4566 N   0  0  0  0  0  0  0  0  0  0  0  0
   10.2127   -3.9762   17.7548 C   0  0  0  0  0  0  0  0  0  0  0  0
    9.7727   -5.0384   18.4788 C   0  0  0  0  0  0  0  0  0  0  0  0
    6.9917   -6.2911   15.0383 C   0  0  0  0  0  0  0  0  0  0  0  0
    7.2531   -8.0817   16.8607 C   0  0  0  0  0  0  0  0  0  0  0  0
    8.4086   -6.0486   16.7551 C   0  0  0  0  0  0  0  0  0  0  0  0
    3.9885  -10.0317   17.5899 N   0  0  0  0  0  0  0  0  0  0  0  0
   11.0857   -4.2090   21.8081 C   0  0  0  0  0  0  0  0  0  0  0  0
    1.7379  -12.7020   21.2758 C   0  0  0  0  0  0  0  0  0  0  0  0
    6.0928   -8.0732   16.4084 C   0  0  0  0  0  0  0  0  0  0  0  0
   -0.5054  -11.1602   21.7840 C   0  0  0  0  0  0  0  0  0  0  0  0
    3.8987   -8.7301   16.4680 C   0  0  0  0  0  0  0  0  0  0  0  0
    9.7636   -3.9290   16.4783 C   0  0  0  0  0  0  0  0  0  0  0  0
   11.2327   -2.9699   19.6183 C   0  0  0  0  0  0  0  0  0  0  0  0
    2.2930   -9.7795   17.1908 C   0  0  0  0  0  0  0  0  0  0  0  0
    0.0865  -11.9105   22.7786 C   0  0  0  0  0  0  0  0  0  0  0  0
    7.8006   -6.7395   16.4752 C   0  0  0  0  0  0  0  0  0  0  0  0
   -0.0156  -11.1856   20.5304 C   0  0  0  0  0  0  0  0  0  0  0  0
    1.6455  -12.2895   18.8787 C   0  0  0  0  0  0  0  0  0  0  0  0
    2.9291   -8.4486   16.1841 N   0  0  0  0  0  0  0  0  0  0  0  0
   10.8549   -4.0771   20.3265 C   0  0  0  0  0  0  0  0  0  0  0  0
    2.1796  -11.2116   18.3178 C   0  0  0  0  0  0  0  0  0  0  0  0
    6.0174   -6.9913   15.0923 C   0  0  0  0  0  0  0  0  0  0  0  0
  1 19  1  0
  2 17  4  0
  2 24  4  0
  3 19  1  0
  4 26  4  0
  4 33  4  0
  5 20  4  0
  5 27  4  0
  6 21  1  0
  6 23  1  0
  7 13  4  0
  7 25  4  0
  8 16  1  0
  9 14  4  0
  9 17  4  0
 10 14  4  0
 10 32  4  0
 11 20  4  0
 11 29  4  0
 11 30  1  0
 12 18  4  0
 12 33  4  0
 13 14  4  0
 13 24  4  0
 15 28  4  0
 15 34  4  0
 16 21  4  0
 16 28  4  0
 17 28  1  0
 19 32  1  0
 21 34  4  0
 22 27  4  0
 22 29  4  0
 23 31  1  0
 25 32  4  0
 26 31  1  0
 30 33  1  0
M  END
$$$$

 Created by Python create_sdf_string function

 34 63  0  0  0  0  0  0  0  0999 V2000
   11.0507   -3.3907   22.3384 C   0  0  0  0  0  0  0  0  0  0  0  0
    8.7430   -4.3895   15.8969 C   0  0  0  0  0  0  0  0  0  0  0  0
   11.4752   -5.2509   22.5249 O   0  0  0  0  0  0  0  0  0  0  0  0
    0.9654  -10.2376   17.3741 N   0  0  0  0  0  0  0  0  0  0  0  0
    0.8277  -12.5680   22.3627 C   0  0  0  0  0  0  0  0  0  0  0  0
    4.2956   -8.0661   15.8086 N   0  0  0  0  0  0  0  0  0  0  0  0
   11.0692   -3.0131   17.9329 C   0  0  0  0  0  0  0  0  0  0  0  0
    9.1170   -6.0739   18.5910 N   0  0  0  0  0  0  0  0  0  0  0  0
    1.6461  -12.1006   20.5858 N   0  0  0  0  0  0  0  0  0  0  0  0
    6.0453   -8.6703   17.5564 C   0  0  0  0  0  0  0  0  0  0  0  0
    7.9149   -6.1061   17.2858 C   0  0  0  0  0  0  0  0  0  0  0  0
    4.3930   -9.5125   17.6659 N   0  0  0  0  0  0  0  0  0  0  0  0
   11.0999   -4.0536   21.9655 C   0  0  0  0  0  0  0  0  0  0  0  0
    5.4332   -8.6014   16.3301 C   0  0  0  0  0  0  0  0  0  0  0  0
   -0.5749  -11.1517   21.7270 C   0  0  0  0  0  0  0  0  0  0  0  0
    3.8522   -9.2819   16.6805 C   0  0  0  0  0  0  0  0  0  0  0  0
   10.7841   -3.1127   19.6582 C   0  0  0  0  0  0  0  0  0  0  0  0
    2.1283  -10.4128   16.8200 C   0  0  0  0  0  0  0  0  0  0  0  0
    0.3421  -11.6271   22.7781 C   0  0  0  0  0  0  0  0  0  0  0  0
    0.1724  -10.8480   20.6599 P   0  0  0  0  0  0  0  0  0  0  0  0
    3.0880   -7.9889   16.7543 N   0  0  0  0  0  0  0  0  0  0  0  0
   10.8219   -4.1109   20.0142 C   0  0  0  0  0  0  0  0  0  0  0  0
    5.9459   -7.0278   15.2129 C   0  0  0  0  0  0  0  0  0  0  0  0
    7.9037   -7.7067   18.0900 He  0  0  0  0  0  0  0  0  0  0  0  0
   10.3259   -4.8402   19.4349 He  0  0  0  0  0  0  0  0  0  0  0  0
    3.3156  -11.1023   18.6996 He  0  0  0  0  0  0  0  0  0  0  0  0
   10.4176   -4.1855   17.2984 He  0  0  0  0  0  0  0  0  0  0  0  0
    9.4451   -4.9893   18.5265 He  0  0  0  0  0  0  0  0  0  0  0  0
    8.5100   -6.0005   13.8203 He  0  0  0  0  0  0  0  0  0  0  0  0
    1.4844  -12.8813   21.3234 He  0  0  0  0  0  0  0  0  0  0  0  0
    9.5642   -4.1119   16.3290 He  0  0  0  0  0  0  0  0  0  0  0  0
    7.5781   -5.8036   15.8554 He  0  0  0  0  0  0  0  0  0  0  0  0
    1.4177  -12.2611   19.0229 He  0  0  0  0  0  0  0  0  0  0  0  0
    2.1806  -11.3539   18.5596 He  0  0  0  0  0  0  0  0  0  0  0  0
  1 10  2  0
  1 13  1  0
  1 19  1  0
  1 23  1  0
  2  4  2  0
  2 11  4  0
  2 16  3  0
  2 18  4  0
  2 22  3  0
  3 10  1  0
  3 12  2  0
  3 13  1  0
  3 15  2  0
  4  5  1  0
  4 11  1  0
  4 15  1  0
  4 17  1  0
  4 18  3  0
  4 19  3  0
  4 20  4  0
  4 21  4  0
  5 14  4  0
  5 19  1  0
  5 21  2  0
  6  8  2  0
  6 12  4  0
  6 14  1  0
  6 16  1  0
  6 17  4  0
  6 18  4  0
  6 19  3  0
  6 23  1  0
  7 10  4  0
  7 17  1  0
  8 11  3  0
  8 13  3  0
  8 17  4  0
  8 23  2  0
  9 14  3  0
  9 18  3  0
  9 20  4  0
 10 13  3  0
 10 14  4  0
 10 20  4  0
 11 17  2  0
 11 18  4  0
 12 20  3  0
 12 22  4  0
 13 17  4  0
 13 21  3  0
 13 22  1  0
 14 15  4  0
 14 19  3  0
 14 20  3  0
 14 21  3  0
 14 22  1  0
 14 23  4  0
 15 19  4  0
 15 20  4  0
 15 22  3  0
 16 21  1  0
 17 22  4  0
 18 21  1  0
M  END
$$$$

 Created by Python create_sdf_string function

 34 38  0  0  0  0  0  0  0  0999 V2000
   10.9138   -3.0194   22.4011 O   0  0  0  0  0  0  0  0  0  0  0  0
    8.9756   -4.4333   15.7678 C   0  0  0  0  0  0  0  0  0  0  0  0
   11.2569   -5.1902   22.3534 O   0  0  0  0  0  0  0  0  0  0  0  0
    1.3053  -10.5162   17.5035 N   0  0  0  0  0  0  0  0  0  0  0  0
    0.9433  -12.6497   22.6280 C   0  0  0  0  0  0  0  0  0  0  0  0
    4.5692   -8.4428   16.0549 N   0  0  0  0  0  0  0  0  0  0  0  0
   10.9208   -3.0119   18.1320 C   0  0  0  0  0  0  0  0  0  0  0  0
    7.5060   -7.7497   17.7511 C   0  0  0  0  0  0  0  0  0  0  0  0
    8.8788   -6.0813   17.9325 N   0  0  0  0  0  0  0  0  0  0  0  0
   10.2385   -5.2053   19.7596 C   0  0  0  0  0  0  0  0  0  0  0  0
    1.1036  -11.9991   20.3247 C   0  0  0  0  0  0  0  0  0  0  0  0
    3.4559  -10.9129   18.5343 N   0  0  0  0  0  0  0  0  0  0  0  0
   10.2027   -4.0215   17.6398 C   0  0  0  0  0  0  0  0  0  0  0  0
    9.8025   -5.1000   18.4222 C   0  0  0  0  0  0  0  0  0  0  0  0
    7.2647   -6.2254   14.9599 C   0  0  0  0  0  0  0  0  0  0  0  0
    6.3853   -8.3225   17.4760 C   0  0  0  0  0  0  0  0  0  0  0  0
    8.0614   -6.5246   17.0637 C   0  0  0  0  0  0  0  0  0  0  0  0
    4.2294  -10.0896   17.8553 N   0  0  0  0  0  0  0  0  0  0  0  0
   11.0851   -4.1441   21.7142 C   0  0  0  0  0  0  0  0  0  0  0  0
    1.5403  -12.8035   21.3895 C   0  0  0  0  0  0  0  0  0  0  0  0
    5.6909   -7.9300   16.2802 C   0  0  0  0  0  0  0  0  0  0  0  0
   -0.3905  -10.8978   21.8671 C   0  0  0  0  0  0  0  0  0  0  0  0
    3.7377   -9.1835   16.8209 C   0  0  0  0  0  0  0  0  0  0  0  0
    9.7427   -3.9898   16.2641 C   0  0  0  0  0  0  0  0  0  0  0  0
   11.1681   -2.9955   19.5105 C   0  0  0  0  0  0  0  0  0  0  0  0
    1.8232   -9.7498   17.0265 C   0  0  0  0  0  0  0  0  0  0  0  0
    0.0221  -11.7492   22.8311 C   0  0  0  0  0  0  0  0  0  0  0  0
    7.5641   -6.3004   15.7811 C   0  0  0  0  0  0  0  0  0  0  0  0
    0.1532  -11.0268   20.5913 C   0  0  0  0  0  0  0  0  0  0  0  0
    1.6288  -12.3412   18.9520 C   0  0  0  0  0  0  0  0  0  0  0  0
    2.5044   -8.9379   16.5243 N   0  0  0  0  0  0  0  0  0  0  0  0
   10.8608   -4.0823   20.3163 C   0  0  0  0  0  0  0  0  0  0  0  0
    2.1008  -11.1425   18.3333 C   0  0  0  0  0  0  0  0  0  0  0  0
    6.2599   -7.1361   15.2954 C   0  0  0  0  0  0  0  0  0  0  0  0
  1 19  1  0
  2 24  4  0
  3 19  1  0
  4 26  4  0
  4 33  4  0
  5 20  4  0
  5 27  4  0
  6 21  1  0
  6 23  1  0
  7 13  4  0
  7 25  4  0
  8 16  4  0
  8 17  4  0
  9 14  1  0
  9 17  4  0
 10 14  4  0
 10 32  4  0
 11 20  4  0
 11 29  4  0
 11 30  1  0
 12 18  4  0
 12 33  4  0
 13 14  4  0
 13 24  4  0
 15 28  1  0
 15 34  4  0
 16 21  4  0
 17 28  1  0
 18 23  4  0
 19 32  1  0
 21 34  4  0
 22 27  4  0
 22 29  4  0
 23 31  4  0
 25 32  4  0
 26 31  4  0
 28 34  4  0
 30 33  1  0
M  END
$$$$

 Created by Python create_sdf_string function

 34 75  0  0  0  0  0  0  0  0999 V2000
   10.8064   -3.3524   22.2635 O   0  0  0  0  0  0  0  0  0  0  0  0
    8.9789   -4.2848   15.9335 C   0  0  0  0  0  0  0  0  0  0  0  0
   11.4296   -5.3067   22.6932 P   0  0  0  0  0  0  0  0  0  0  0  0
    0.6601  -12.2073   22.4861 C   0  0  0  0  0  0  0  0  0  0  0  0
   10.8650   -3.1773   17.8634 C   0  0  0  0  0  0  0  0  0  0  0  0
    7.5937   -7.5891   18.7011 P   0  0  0  0  0  0  0  0  0  0  0  0
    9.6546   -6.0876   17.9633 I   0  0  0  0  0  0  0  0  0  0  0  0
   10.2218   -5.2347   19.7467 C   0  0  0  0  0  0  0  0  0  0  0  0
    1.0375  -11.8761   20.0802 C   0  0  0  0  0  0  0  0  0  0  0  0
    2.3924  -10.2119   17.2201 N   0  0  0  0  0  0  0  0  0  0  0  0
   10.0097   -4.1165   17.5834 O   0  0  0  0  0  0  0  0  0  0  0  0
    9.6734   -4.6024   18.6623 C   0  0  0  0  0  0  0  0  0  0  0  0
    7.6927   -6.1482   15.1633 C   0  0  0  0  0  0  0  0  0  0  0  0
    8.2750   -6.5087   17.4447 C   0  0  0  0  0  0  0  0  0  0  0  0
    4.1045   -9.6324   18.3654 O   0  0  0  0  0  0  0  0  0  0  0  0
   11.2163   -3.9904   22.0192 C   0  0  0  0  0  0  0  0  0  0  0  0
    1.5536  -12.7692   21.7613 C   0  0  0  0  0  0  0  0  0  0  0  0
    3.7661   -9.2445   16.9173 C   0  0  0  0  0  0  0  0  0  0  0  0
   10.0730   -4.1022   16.4756 C   0  0  0  0  0  0  0  0  0  0  0  0
   11.2211   -2.8258   19.6828 C   0  0  0  0  0  0  0  0  0  0  0  0
    1.7966   -9.2617   17.6167 C   0  0  0  0  0  0  0  0  0  0  0  0
   -0.4428  -11.6213   22.7050 S   0  0  0  0  0  0  0  0  0  0  0  0
    8.1586   -5.8666   15.8288 C   0  0  0  0  0  0  0  0  0  0  0  0
    0.0158  -11.1893   20.4534 C   0  0  0  0  0  0  0  0  0  0  0  0
    1.8705  -12.1847   19.0222 C   0  0  0  0  0  0  0  0  0  0  0  0
    2.0630   -9.1334   17.1266 P   0  0  0  0  0  0  0  0  0  0  0  0
   11.0451   -4.3226   20.2314 C   0  0  0  0  0  0  0  0  0  0  0  0
    1.9331  -10.9344   18.3770 C   0  0  0  0  0  0  0  0  0  0  0  0
    1.5730  -10.2846   17.3458 He  0  0  0  0  0  0  0  0  0  0  0  0
    4.6254   -7.1281   15.9227 He  0  0  0  0  0  0  0  0  0  0  0  0
    6.5308   -8.3615   17.4732 He  0  0  0  0  0  0  0  0  0  0  0  0
    4.2579   -7.9383   16.7809 He  0  0  0  0  0  0  0  0  0  0  0  0
   -0.5763  -10.8034   21.7015 He  0  0  0  0  0  0  0  0  0  0  0  0
    6.1866   -7.2215   15.5663 He  0  0  0  0  0  0  0  0  0  0  0  0
  1  4  1  0
  1 12  3  0
  1 15  1  0
  1 16  1  0
  2 13  1  0
  2 19  4  0
  2 21  1  0
  3  7  3  0
  3 10  4  0
  3 13  2  0
  3 16  1  0
  3 23  2  0
  4 13  4  0
  4 17  4  0
  4 22  4  0
  4 25  2  0
  5  6  2  0
  5 10  4  0
  5 11  4  0
  5 13  3  0
  5 20  4  0
  5 23  3  0
  6  7  1  0
  6  9  2  0
  6 14  4  0
  6 21  1  0
  7  9  2  0
  7 12  1  0
  7 13  3  0
  7 14  4  0
  7 15  1  0
  7 24  1  0
  7 25  4  0
  7 27  2  0
  7 28  2  0
  8 12  4  0
  8 13  1  0
  8 15  3  0
  8 19  2  0
  8 27  4  0
  9 20  4  0
  9 24  3  0
  9 25  1  0
  9 27  4  0
 10 11  4  0
 10 15  2  0
 10 18  2  0
 10 20  1  0
 10 21  2  0
 10 22  3  0
 11 12  4  0
 11 19  2  0
 11 21  4  0
 12 13  1  0
 12 15  3  0
 12 23  2  0
 13 14  4  0
 13 15  2  0
 13 19  1  0
 14 23  1  0
 15 16  2  0
 15 18  1  0
 16 27  1  0
 17 21  2  0
 17 27  2  0
 19 26  2  0
 19 28  1  0
 20 25  4  0
 20 27  4  0
 21 26  4  0
 21 28  3  0
 22 25  3  0
 23 24  4  0
 23 26  3  0
 25 28  1  0
M  END
$$$$

 Created by Python create_sdf_string function

 34 35  0  0  0  0  0  0  0  0999 V2000
   10.8103   -3.0868   22.4643 O   0  0  0  0  0  0  0  0  0  0  0  0
    8.9257   -4.5872   15.7050 C   0  0  0  0  0  0  0  0  0  0  0  0
   11.3510   -5.2204   22.4287 O   0  0  0  0  0  0  0  0  0  0  0  0
    0.9139  -10.6385   17.3821 N   0  0  0  0  0  0  0  0  0  0  0  0
    0.7481  -12.4118   22.6712 C   0  0  0  0  0  0  0  0  0  0  0  0
    4.7077   -7.6796   16.0239 C   0  0  0  0  0  0  0  0  0  0  0  0
   10.9653   -2.9891   18.2220 C   0  0  0  0  0  0  0  0  0  0  0  0
    7.6422   -7.4782   17.8311 C   0  0  0  0  0  0  0  0  0  0  0  0
    9.0358   -6.1482   17.9421 N   0  0  0  0  0  0  0  0  0  0  0  0
   10.2752   -5.1898   19.8075 C   0  0  0  0  0  0  0  0  0  0  0  0
    1.0516  -11.9397   20.3571 C   0  0  0  0  0  0  0  0  0  0  0  0
    2.8933  -10.4319   18.0367 N   0  0  0  0  0  0  0  0  0  0  0  0
   10.2533   -4.0303   17.7202 C   0  0  0  0  0  0  0  0  0  0  0  0
    9.8788   -5.1521   18.4979 C   0  0  0  0  0  0  0  0  0  0  0  0
    7.4572   -6.1054   15.6108 C   0  0  0  0  0  0  0  0  0  0  0  0
    6.3704   -7.9971   17.4626 C   0  0  0  0  0  0  0  0  0  0  0  0
    8.2242   -6.4950   17.2544 C   0  0  0  0  0  0  0  0  0  0  0  0
    4.2283  -10.0206   18.0809 O   0  0  0  0  0  0  0  0  0  0  0  0
   11.1401   -4.1330   21.8223 C   0  0  0  0  0  0  0  0  0  0  0  0
    1.4516  -12.6161   21.5212 C   0  0  0  0  0  0  0  0  0  0  0  0
    4.7767   -8.2653   16.7293 C   0  0  0  0  0  0  0  0  0  0  0  0
   -0.7230  -10.8772   21.6099 C   0  0  0  0  0  0  0  0  0  0  0  0
    3.7660   -8.8842   16.9503 C   0  0  0  0  0  0  0  0  0  0  0  0
    9.7711   -3.9963   16.3677 C   0  0  0  0  0  0  0  0  0  0  0  0
   11.2231   -3.0241   19.6122 C   0  0  0  0  0  0  0  0  0  0  0  0
    1.3516   -9.4760   16.9315 C   0  0  0  0  0  0  0  0  0  0  0  0
   -0.3041  -11.5361   22.7482 C   0  0  0  0  0  0  0  0  0  0  0  0
    7.8736   -5.9887   15.9249 C   0  0  0  0  0  0  0  0  0  0  0  0
   -0.0623  -11.0600   20.4430 C   0  0  0  0  0  0  0  0  0  0  0  0
    1.7946  -12.2452   19.1330 C   0  0  0  0  0  0  0  0  0  0  0  0
    2.1211   -8.8396   16.7359 C   0  0  0  0  0  0  0  0  0  0  0  0
   10.9121   -4.0968   20.3951 C   0  0  0  0  0  0  0  0  0  0  0  0
    1.8858  -11.1795   18.2626 C   0  0  0  0  0  0  0  0  0  0  0  0
    6.2738   -7.0800   15.6798 C   0  0  0  0  0  0  0  0  0  0  0  0
  1 19  1  0
  2 24  4  0
  3 19  1  0
  4 26  4  0
  4 33  4  0
  5 20  4  0
  5 27  4  0
  6 21  1  0
  7 13  4  0
  7 25  4  0
  8 16  4  0
  8 17  4  0
  9 14  4  0
  9 17  4  0
 10 14  4  0
 10 32  4  0
 11 20  4  0
 11 29  4  0
 11 30  1  0
 12 18  4  0
 12 33  4  0
 13 14  4  0
 13 24  4  0
 15 28  4  0
 15 34  4  0
 16 21  4  0
 17 28  4  0
 19 32  1  0
 21 23  1  0
 22 27  4  0
 22 29  4  0
 23 31  4  0
 25 32  4  0
 26 31  4  0
 30 33  1  0
M  END
$$$$

 Created by Python create_sdf_string function

 34 91  0  0  0  0  0  0  0  0999 V2000
   10.7485   -3.1168   22.8606 C   0  0  0  0  0  0  0  0  0  0  0  0
    9.0839   -4.8473   15.6766 C   0  0  0  0  0  0  0  0  0  0  0  0
   11.0596   -5.4553   22.6631 F   0  0  0  0  0  0  0  0  0  0  0  0
    0.1568  -11.0623   17.0075 N   0  0  0  0  0  0  0  0  0  0  0  0
    0.6732  -12.4027   22.7950 C   0  0  0  0  0  0  0  0  0  0  0  0
   10.8772   -2.9606   17.9711 C   0  0  0  0  0  0  0  0  0  0  0  0
    8.6884   -6.2346   18.0982 N   0  0  0  0  0  0  0  0  0  0  0  0
   10.0499   -5.2154   19.8071 C   0  0  0  0  0  0  0  0  0  0  0  0
    1.0923  -11.8688   20.2068 P   0  0  0  0  0  0  0  0  0  0  0  0
    2.6961   -9.8691   17.8115 F   0  0  0  0  0  0  0  0  0  0  0  0
   10.4158   -3.8836   17.5016 C   0  0  0  0  0  0  0  0  0  0  0  0
    9.7869   -5.4425   18.5680 C   0  0  0  0  0  0  0  0  0  0  0  0
    8.3270   -6.2179   15.0363 C   0  0  0  0  0  0  0  0  0  0  0  0
    6.2946   -8.1680   17.5305 F   0  0  0  0  0  0  0  0  0  0  0  0
    4.2765  -10.8968   17.8451 O   0  0  0  0  0  0  0  0  0  0  0  0
   10.9382   -4.2111   21.9206 C   0  0  0  0  0  0  0  0  0  0  0  0
    1.3992  -12.4469   21.4756 C   0  0  0  0  0  0  0  0  0  0  0  0
    4.1913   -8.2792   17.0179 C   0  0  0  0  0  0  0  0  0  0  0  0
   -0.8716  -10.8950   21.3609 C   0  0  0  0  0  0  0  0  0  0  0  0
    3.6691   -9.1688   17.2073 C   0  0  0  0  0  0  0  0  0  0  0  0
    9.9071   -4.1144   16.1093 C   0  0  0  0  0  0  0  0  0  0  0  0
    0.2626   -8.6949   16.5730 C   0  0  0  0  0  0  0  0  0  0  0  0
   -0.4261  -11.1631   22.6937 C   0  0  0  0  0  0  0  0  0  0  0  0
    8.0472   -5.3638   15.4081 C   0  0  0  0  0  0  0  0  0  0  0  0
    0.1432  -10.9580   20.6859 C   0  0  0  0  0  0  0  0  0  0  0  0
    1.4798  -12.3751   18.9623 C   0  0  0  0  0  0  0  0  0  0  0  0
    1.5678   -8.8296   16.8151 C   0  0  0  0  0  0  0  0  0  0  0  0
   10.9948   -4.4771   20.4147 C   0  0  0  0  0  0  0  0  0  0  0  0
    1.9754  -11.3460   18.1990 C   0  0  0  0  0  0  0  0  0  0  0  0
    6.5757   -7.1310   15.4873 C   0  0  0  0  0  0  0  0  0  0  0  0
    4.5353   -8.0500   16.0451 He  0  0  0  0  0  0  0  0  0  0  0  0
    7.3034   -8.0129   17.5175 He  0  0  0  0  0  0  0  0  0  0  0  0
    8.1802   -6.2801   17.2813 He  0  0  0  0  0  0  0  0  0  0  0  0
   11.4133   -2.7515   19.3686 He  0  0  0  0  0  0  0  0  0  0  0  0
  1  4  4  0
  1  7  4  0
  1 14  3  0
  1 16  1  0
  2  5  2  0
  2  7  2  0
  2 14  1  0
  2 21  4  0
  2 22  3  0
  3  7  4  0
  3  8  4  0
  3 10  4  0
  3 16  1  0
  3 18  4  0
  3 23  3  0
  3 27  2  0
  3 30  1  0
  4 10  3  0
  4 14  3  0
  4 20  1  0
  4 28  2  0
  4 29  4  0
  4 30  4  0
  5 17  3  0
  5 21  3  0
  5 23  4  0
  5 24  2  0
  5 27  3  0
  5 28  4  0
  6 11  4  0
  6 13  3  0
  6 19  1  0
  6 28  4  0
  7 10  3  0
  7 12  4  0
  7 18  2  0
  7 25  2  0
  8 12  4  0
  8 16  2  0
  8 27  3  0
  8 28  4  0
  8 29  1  0
  9 24  2  0
  9 25  4  0
  9 26  1  0
 10 12  1  0
 10 18  4  0
 10 19  1  0
 10 21  2  0
 10 22  3  0
 10 25  4  0
 10 29  1  0
 11 12  4  0
 11 21  4  0
 12 26  4  0
 12 27  3  0
 12 28  1  0
 13 18  1  0
 13 22  4  0
 13 24  3  0
 13 27  3  0
 13 30  4  0
 14 18  4  0
 14 20  1  0
 14 22  4  0
 14 27  2  0
 14 30  1  0
 15 18  3  0
 15 25  2  0
 15 27  3  0
 15 29  4  0
 16 28  1  0
 17 19  3  0
 17 26  2  0
 18 19  1  0
 18 28  4  0
 19 22  3  0
 19 23  4  0
 19 25  4  0
 19 29  3  0
 20 24  1  0
 21 27  2  0
 22 27  4  0
 22 28  4  0
 22 29  1  0
 23 27  3  0
 24 25  3  0
 24 28  4  0
 26 27  4  0
 26 29  1  0
 27 30  3  0
M  END
$$$$

 Created by Python create_sdf_string function

 34 37  0  0  0  0  0  0  0  0999 V2000
   10.7401   -3.0526   22.5149 C   0  0  0  0  0  0  0  0  0  0  0  0
    8.9805   -4.8590   15.8078 C   0  0  0  0  0  0  0  0  0  0  0  0
   11.1372   -5.2818   22.4310 C   0  0  0  0  0  0  0  0  0  0  0  0
    0.6465  -10.5755   17.3658 N   0  0  0  0  0  0  0  0  0  0  0  0
    0.7169  -12.1956   22.6419 C   0  0  0  0  0  0  0  0  0  0  0  0
    4.6088   -8.2270   16.3501 N   0  0  0  0  0  0  0  0  0  0  0  0
   11.0054   -3.0598   18.2473 C   0  0  0  0  0  0  0  0  0  0  0  0
    7.1289   -7.4368   17.5675 C   0  0  0  0  0  0  0  0  0  0  0  0
    8.8495   -6.2126   18.1585 N   0  0  0  0  0  0  0  0  0  0  0  0
   10.2056   -5.2000   19.7469 C   0  0  0  0  0  0  0  0  0  0  0  0
    0.9882  -11.8363   20.2534 C   0  0  0  0  0  0  0  0  0  0  0  0
    2.9092  -10.3262   17.8633 C   0  0  0  0  0  0  0  0  0  0  0  0
   10.2621   -4.0814   17.6734 C   0  0  0  0  0  0  0  0  0  0  0  0
    9.7624   -5.1657   18.4685 C   0  0  0  0  0  0  0  0  0  0  0  0
    7.2977   -6.5196   15.1982 C   0  0  0  0  0  0  0  0  0  0  0  0
    6.2711   -7.8309   16.9052 C   0  0  0  0  0  0  0  0  0  0  0  0
    8.1099   -6.5394   17.2771 C   0  0  0  0  0  0  0  0  0  0  0  0
    4.1338  -10.4163   18.2388 O   0  0  0  0  0  0  0  0  0  0  0  0
   11.0465   -4.1153   21.8024 C   0  0  0  0  0  0  0  0  0  0  0  0
    1.3828  -12.4103   21.4707 C   0  0  0  0  0  0  0  0  0  0  0  0
    4.3967   -8.5583   16.7138 C   0  0  0  0  0  0  0  0  0  0  0  0
   -0.7435  -10.7367   21.5667 C   0  0  0  0  0  0  0  0  0  0  0  0
    3.2259   -9.0453   16.9639 C   0  0  0  0  0  0  0  0  0  0  0  0
    9.8472   -4.0915   16.3607 C   0  0  0  0  0  0  0  0  0  0  0  0
   11.1833   -3.0715   19.6221 C   0  0  0  0  0  0  0  0  0  0  0  0
    0.7547   -9.3855   16.6077 C   0  0  0  0  0  0  0  0  0  0  0  0
   -0.3321  -11.3806   22.7155 C   0  0  0  0  0  0  0  0  0  0  0  0
    8.1873   -5.9804   16.1580 C   0  0  0  0  0  0  0  0  0  0  0  0
   -0.0885  -10.9960   20.3970 C   0  0  0  0  0  0  0  0  0  0  0  0
    1.6789  -12.1019   19.0082 C   0  0  0  0  0  0  0  0  0  0  0  0
    1.8402   -8.6969   16.5672 C   0  0  0  0  0  0  0  0  0  0  0  0
   10.8100   -4.1193   20.3572 C   0  0  0  0  0  0  0  0  0  0  0  0
    1.6728  -11.0151   18.0662 C   0  0  0  0  0  0  0  0  0  0  0  0
    6.4181   -7.1546   15.3036 C   0  0  0  0  0  0  0  0  0  0  0  0
  1 19  1  0
  2 24  4  0
  2 28  4  0
  3 19  1  0
  4 26  4  0
  4 33  4  0
  5 20  4  0
  5 27  4  0
  6 21  1  0
  7 13  4  0
  7 25  4  0
  8 16  4  0
  8 17  4  0
  9 14  4  0
  9 17  4  0
 10 14  4  0
 10 32  4  0
 11 20  4  0
 11 29  4  0
 11 30  1  0
 12 18  4  0
 12 23  4  0
 12 33  4  0
 13 14  4  0
 13 24  4  0
 15 28  4  0
 15 34  4  0
 16 34  4  0
 17 28  4  0
 19 32  1  0
 21 23  1  0
 22 27  4  0
 22 29  4  0
 23 31  4  0
 25 32  4  0
 26 31  4  0
 30 33  1  0
M  END
$$$$

 Created by Python create_sdf_string function

 34101  0  0  0  0  0  0  0  0999 V2000
   10.3917   -3.1513   22.2380 C   0  0  0  0  0  0  0  0  0  0  0  0
    8.8234   -5.0233   15.7003 C   0  0  0  0  0  0  0  0  0  0  0  0
   11.1696   -5.4835   22.4205 C   0  0  0  0  0  0  0  0  0  0  0  0
    0.5799  -10.2441   17.0316 N   0  0  0  0  0  0  0  0  0  0  0  0
    0.6671  -12.2007   22.6299 C   0  0  0  0  0  0  0  0  0  0  0  0
    4.9970   -8.0844   16.2087 N   0  0  0  0  0  0  0  0  0  0  0  0
   10.8276   -2.9484   18.4158 C   0  0  0  0  0  0  0  0  0  0  0  0
    8.0740   -7.5619   18.1214 C   0  0  0  0  0  0  0  0  0  0  0  0
    8.9870   -5.4563   18.9158 N   0  0  0  0  0  0  0  0  0  0  0  0
   10.1823   -5.0389   19.4293 C   0  0  0  0  0  0  0  0  0  0  0  0
    1.1807  -11.7161   20.6078 C   0  0  0  0  0  0  0  0  0  0  0  0
    2.8735   -8.9170   17.5564 C   0  0  0  0  0  0  0  0  0  0  0  0
   10.4638   -4.0504   17.7367 C   0  0  0  0  0  0  0  0  0  0  0  0
    6.9034   -7.3823   14.8438 C   0  0  0  0  0  0  0  0  0  0  0  0
    5.8002   -6.8459   17.6925 C   0  0  0  0  0  0  0  0  0  0  0  0
    8.2974   -6.5688   17.2149 C   0  0  0  0  0  0  0  0  0  0  0  0
    4.1389  -10.9957   19.0385 O   0  0  0  0  0  0  0  0  0  0  0  0
   10.7611   -4.1848   21.6480 C   0  0  0  0  0  0  0  0  0  0  0  0
    1.4392  -12.3368   21.2265 C   0  0  0  0  0  0  0  0  0  0  0  0
    4.7588   -8.9099   16.5564 C   0  0  0  0  0  0  0  0  0  0  0  0
   -0.5494  -10.6587   21.7980 C   0  0  0  0  0  0  0  0  0  0  0  0
    3.3083   -9.1562   17.1186 C   0  0  0  0  0  0  0  0  0  0  0  0
   10.1313   -3.7597   16.5463 C   0  0  0  0  0  0  0  0  0  0  0  0
   11.3000   -3.1304   19.6560 C   0  0  0  0  0  0  0  0  0  0  0  0
    0.5286   -8.9961   16.1237 Se  0  0  0  0  0  0  0  0  0  0  0  0
   -0.9250  -11.3332   22.8670 C   0  0  0  0  0  0  0  0  0  0  0  0
    8.5074   -5.0996   16.0478 C   0  0  0  0  0  0  0  0  0  0  0  0
    0.0070  -10.8505   19.8990 C   0  0  0  0  0  0  0  0  0  0  0  0
    1.7155  -11.9111   19.0457 C   0  0  0  0  0  0  0  0  0  0  0  0
    1.8466   -9.0712   16.6999 B   0  0  0  0  0  0  0  0  0  0  0  0
    1.4260  -11.0018   17.7244 C   0  0  0  0  0  0  0  0  0  0  0  0
    6.6091   -7.1071   15.3590 C   0  0  0  0  0  0  0  0  0  0  0  0
    9.9566   -5.2615   18.3733 He  0  0  0  0  0  0  0  0  0  0  0  0
   10.9993   -3.8912   20.4527 He  0  0  0  0  0  0  0  0  0  0  0  0
  1 12  1  0
  1 18  1  0
  1 19  4  0
  1 20  2  0
  2  3  2  0
  2  4  4  0
  2 12  2  0
  2 22  3  0
  2 23  3  0
  2 27  2  0
  3  9  1  0
  3 14  4  0
  3 18  1  0
  3 24  3  0
  3 26  3  0
  4 10  1  0
  4 14  2  0
  4 22  1  0
  4 25  4  0
  4 30  1  0
  5  8  2  0
  5  9  1  0
  5 12  3  0
  5 18  4  0
  5 19  4  0
  5 23  4  0
  5 26  4  0
  6 14  1  0
  6 15  1  0
  6 19  3  0
  6 20  1  0
  6 21  2  0
  6 22  2  0
  6 28  2  0
  6 32  3  0
  7 13  4  0
  7 14  4  0
  7 19  2  0
  7 22  2  0
  7 24  4  0
  8 15  4  0
  8 16  4  0
  8 17  3  0
  8 18  2  0
  8 22  1  0
  8 25  3  0
  8 32  3  0
  9 13  4  0
  9 24  4  0
  9 27  4  0
 10 25  2  0
 11 21  2  0
 11 27  2  0
 11 28  4  0
 11 29  1  0
 12 16  3  0
 12 17  4  0
 12 20  3  0
 12 21  4  0
 12 22  1  0
 12 23  4  0
 12 32  3  0
 13 23  4  0
 14 15  1  0
 14 16  2  0
 14 22  4  0
 14 27  4  0
 14 30  4  0
 15 23  1  0
 15 24  3  0
 15 26  4  0
 15 32  4  0
 16 18  2  0
 16 22  1  0
 16 23  3  0
 16 26  4  0
 17 22  2  0
 17 25  4  0
 17 26  4  0
 17 28  4  0
 17 30  3  0
 18 30  2  0
 18 32  4  0
 19 28  4  0
 20 22  4  0
 20 26  1  0
 20 28  4  0
 20 29  3  0
 21 26  1  0
 21 28  4  0
 21 30  4  0
 22 26  2  0
 22 27  1  0
 22 30  4  0
 23 24  3  0
 23 28  1  0
 24 26  4  0
 26 27  3  0
 27 29  2  0
 27 31  4  0
 30 31  2  0
M  END
$$$$

 Created by Python create_sdf_string function

 34 39  0  0  0  0  0  0  0  0999 V2000
   10.3569   -3.0056   22.4915 C   0  0  0  0  0  0  0  0  0  0  0  0
    9.0033   -4.8249   15.8493 C   0  0  0  0  0  0  0  0  0  0  0  0
   11.1876   -5.2424   22.4140 C   0  0  0  0  0  0  0  0  0  0  0  0
    0.5570  -10.4368   17.3284 N   0  0  0  0  0  0  0  0  0  0  0  0
    0.6606  -12.1703   22.5714 C   0  0  0  0  0  0  0  0  0  0  0  0
    4.7306   -8.3642   16.8644 N   0  0  0  0  0  0  0  0  0  0  0  0
   11.0046   -2.9870   18.2560 C   0  0  0  0  0  0  0  0  0  0  0  0
    7.1192   -7.3746   17.7919 C   0  0  0  0  0  0  0  0  0  0  0  0
    9.0870   -6.2233   18.1358 N   0  0  0  0  0  0  0  0  0  0  0  0
   10.1594   -5.1560   19.7412 C   0  0  0  0  0  0  0  0  0  0  0  0
    0.9565  -11.6158   20.2354 C   0  0  0  0  0  0  0  0  0  0  0  0
    2.8800  -10.1992   17.8191 C   0  0  0  0  0  0  0  0  0  0  0  0
   10.2795   -3.9832   17.6883 C   0  0  0  0  0  0  0  0  0  0  0  0
    9.8296   -5.1291   18.4419 C   0  0  0  0  0  0  0  0  0  0  0  0
    7.2955   -6.7783   15.2483 C   0  0  0  0  0  0  0  0  0  0  0  0
    6.1034   -7.7592   17.0429 C   0  0  0  0  0  0  0  0  0  0  0  0
    8.2171   -6.5111   17.2192 C   0  0  0  0  0  0  0  0  0  0  0  0
    3.9467  -10.5549   18.5731 O   0  0  0  0  0  0  0  0  0  0  0  0
   10.9764   -4.0378   21.8132 N   0  0  0  0  0  0  0  0  0  0  0  0
    1.3539  -12.2749   21.4337 C   0  0  0  0  0  0  0  0  0  0  0  0
    4.3335   -8.8673   16.7119 C   0  0  0  0  0  0  0  0  0  0  0  0
   -0.8497  -10.6738   21.5644 C   0  0  0  0  0  0  0  0  0  0  0  0
    2.9539   -9.3580   16.9292 C   0  0  0  0  0  0  0  0  0  0  0  0
    9.9231   -3.9479   16.3620 C   0  0  0  0  0  0  0  0  0  0  0  0
   11.1919   -2.9744   19.6253 C   0  0  0  0  0  0  0  0  0  0  0  0
    0.6479   -9.4409   16.3773 C   0  0  0  0  0  0  0  0  0  0  0  0
   -0.4101  -11.3607   22.6533 C   0  0  0  0  0  0  0  0  0  0  0  0
    8.3692   -5.9688   16.4088 C   0  0  0  0  0  0  0  0  0  0  0  0
   -0.1574  -10.7767   20.4168 C   0  0  0  0  0  0  0  0  0  0  0  0
    1.6296  -11.8606   18.9411 C   0  0  0  0  0  0  0  0  0  0  0  0
    1.8945   -8.8702   16.2198 N   0  0  0  0  0  0  0  0  0  0  0  0
   10.8012   -4.0393   20.3754 C   0  0  0  0  0  0  0  0  0  0  0  0
    1.6210  -10.8034   18.0427 C   0  0  0  0  0  0  0  0  0  0  0  0
    6.3570   -7.3034   15.5828 C   0  0  0  0  0  0  0  0  0  0  0  0
  1 19  1  0
  2 24  4  0
  2 28  4  0
  3 19  1  0
  4 26  4  0
  4 33  4  0
  5 20  4  0
  5 27  4  0
  6 16  1  0
  6 21  1  0
  7 13  4  0
  7 25  4  0
  8 16  4  0
  8 17  4  0
  9 14  4  0
  9 17  4  0
  9 28  4  0
 10 14  4  0
 10 32  4  0
 11 20  4  0
 11 29  4  0
 11 30  1  0
 12 18  2  0
 12 23  4  0
 12 33  4  0
 13 14  4  0
 13 24  4  0
 15 28  4  0
 15 34  4  0
 16 34  4  0
 17 28  1  0
 19 32  1  0
 21 23  1  0
 22 27  4  0
 22 29  4  0
 23 31  4  0
 25 32  4  0
 26 31  4  0
 30 33  1  0
M  END
$$$$

 Created by Python create_sdf_string function

 34 90  0  0  0  0  0  0  0  0999 V2000
   10.2890   -2.8562   22.7314 C   0  0  0  0  0  0  0  0  0  0  0  0
    9.1072   -4.7718   15.9188 C   0  0  0  0  0  0  0  0  0  0  0  0
   11.2755   -5.2693   22.3446 C   0  0  0  0  0  0  0  0  0  0  0  0
    0.1003  -11.8981   22.4745 C   0  0  0  0  0  0  0  0  0  0  0  0
    4.6966   -8.9396   16.9990 N   0  0  0  0  0  0  0  0  0  0  0  0
   11.1411   -2.8127   18.3108 C   0  0  0  0  0  0  0  0  0  0  0  0
    6.7797   -7.0056   17.9595 C   0  0  0  0  0  0  0  0  0  0  0  0
   10.0114   -5.4463   19.7834 C   0  0  0  0  0  0  0  0  0  0  0  0
    2.4544  -10.6841   18.1544 F   0  0  0  0  0  0  0  0  0  0  0  0
   10.6221   -4.0636   18.0241 C   0  0  0  0  0  0  0  0  0  0  0  0
   10.0508   -4.7612   18.6756 C   0  0  0  0  0  0  0  0  0  0  0  0
    6.9265   -6.8544   14.9281 C   0  0  0  0  0  0  0  0  0  0  0  0
    6.2483   -7.9600   17.4984 C   0  0  0  0  0  0  0  0  0  0  0  0
    8.2789   -6.2822   16.9761 C   0  0  0  0  0  0  0  0  0  0  0  0
    3.9631  -11.4526   18.6446 O   0  0  0  0  0  0  0  0  0  0  0  0
   11.2027   -3.9443   21.6843 N   0  0  0  0  0  0  0  0  0  0  0  0
    1.4685  -12.0741   21.3039 C   0  0  0  0  0  0  0  0  0  0  0  0
    4.9670   -8.7954   17.0724 C   0  0  0  0  0  0  0  0  0  0  0  0
   -0.7788  -10.8097   21.5114 C   0  0  0  0  0  0  0  0  0  0  0  0
    2.7511   -9.1911   17.2337 C   0  0  0  0  0  0  0  0  0  0  0  0
    9.8226   -4.1083   16.4621 C   0  0  0  0  0  0  0  0  0  0  0  0
   11.1258   -2.9583   19.6948 C   0  0  0  0  0  0  0  0  0  0  0  0
    0.9911   -9.3990   16.7482 N   0  0  0  0  0  0  0  0  0  0  0  0
   -0.4224  -11.5017   22.4973 C   0  0  0  0  0  0  0  0  0  0  0  0
    8.8070   -6.8532   16.4478 F   0  0  0  0  0  0  0  0  0  0  0  0
   -0.1706  -10.6954   20.3775 C   0  0  0  0  0  0  0  0  0  0  0  0
    1.7692  -11.5010   18.7553 C   0  0  0  0  0  0  0  0  0  0  0  0
    2.1429   -8.6616   17.0563 N   0  0  0  0  0  0  0  0  0  0  0  0
   11.2191   -4.0905   19.9752 C   0  0  0  0  0  0  0  0  0  0  0  0
    1.2913  -10.7390   17.9311 C   0  0  0  0  0  0  0  0  0  0  0  0
    6.4862   -7.2158   15.5787 C   0  0  0  0  0  0  0  0  0  0  0  0
   -0.0536  -10.2956   17.1206 He  0  0  0  0  0  0  0  0  0  0  0  0
    8.8193   -6.3985   18.3741 He  0  0  0  0  0  0  0  0  0  0  0  0
    1.0606  -11.7651   20.3562 He  0  0  0  0  0  0  0  0  0  0  0  0
  1  2  1  0
  1 16  1  0
  1 21  1  0
  1 23  3  0
  2  9  2  0
  2 25  4  0
  3 16  1  0
  3 26  1  0
  3 28  4  0
  4 10  3  0
  4 11  2  0
  4 15  4  0
  4 17  4  0
  4 18  3  0
  4 19  1  0
  4 24  4  0
  5 13  2  0
  5 15  4  0
  5 17  3  0
  5 18  1  0
  5 24  1  0
  5 29  1  0
  5 30  1  0
  5 31  3  0
  6 10  4  0
  6 14  2  0
  6 18  3  0
  6 20  2  0
  6 22  4  0
  6 28  4  0
  7  9  4  0
  7 13  4  0
  7 14  4  0
  7 19  1  0
  7 21  3  0
  7 25  1  0
  7 26  3  0
  7 28  4  0
  8 11  4  0
  8 15  4  0
  8 22  3  0
  8 28  4  0
  8 29  4  0
  9 13  4  0
  9 20  3  0
  9 22  3  0
  9 26  1  0
  9 30  3  0
 10 11  4  0
 10 18  2  0
 10 21  4  0
 10 24  4  0
 10 28  2  0
 11 18  3  0
 12 24  1  0
 12 25  4  0
 12 26  2  0
 12 27  2  0
 12 31  4  0
 13 16  4  0
 13 22  4  0
 13 30  4  0
 13 31  4  0
 14 15  3  0
 14 25  4  0
 14 28  4  0
 15 19  1  0
 15 25  4  0
 15 27  1  0
 16 19  2  0
 16 25  4  0
 16 28  2  0
 16 29  1  0
 17 23  4  0
 18 20  1  0
 19 23  1  0
 19 24  3  0
 19 26  4  0
 20 28  4  0
 20 31  4  0
 21 23  4  0
 21 30  1  0
 22 29  4  0
 23 24  1  0
 23 28  2  0
 24 29  2  0
 25 26  3  0
 27 30  1  0
 28 30  1  0
 29 31  1  0
M  END
$$$$

 Created by Python create_sdf_string function

 34 38  0  0  0  0  0  0  0  0999 V2000
   10.5472   -2.9364   22.5544 C   0  0  0  0  0  0  0  0  0  0  0  0
    9.1037   -5.0558   15.8349 C   0  0  0  0  0  0  0  0  0  0  0  0
   11.3205   -5.2203   22.4753 C   0  0  0  0  0  0  0  0  0  0  0  0
    0.4293  -10.3237   17.2554 N   0  0  0  0  0  0  0  0  0  0  0  0
    0.6664  -12.0472   22.5192 C   0  0  0  0  0  0  0  0  0  0  0  0
    4.9927   -8.7371   17.4854 N   0  0  0  0  0  0  0  0  0  0  0  0
   10.9716   -3.0273   18.2191 C   0  0  0  0  0  0  0  0  0  0  0  0
    7.1471   -7.3530   17.8410 C   0  0  0  0  0  0  0  0  0  0  0  0
    9.0269   -6.1032   18.3171 N   0  0  0  0  0  0  0  0  0  0  0  0
   10.3045   -5.1334   19.8553 C   0  0  0  0  0  0  0  0  0  0  0  0
    0.9005  -11.5675   20.1964 C   0  0  0  0  0  0  0  0  0  0  0  0
    2.6790  -10.4143   17.9832 C   0  0  0  0  0  0  0  0  0  0  0  0
   10.2938   -4.0872   17.7526 C   0  0  0  0  0  0  0  0  0  0  0  0
    9.8748   -5.1133   18.5986 C   0  0  0  0  0  0  0  0  0  0  0  0
    7.4350   -6.6413   15.2576 C   0  0  0  0  0  0  0  0  0  0  0  0
    6.2418   -7.8072   16.9838 C   0  0  0  0  0  0  0  0  0  0  0  0
    8.1375   -6.4850   17.4642 C   0  0  0  0  0  0  0  0  0  0  0  0
    3.8061  -11.0841   18.6571 O   0  0  0  0  0  0  0  0  0  0  0  0
   11.1217   -3.9986   21.8409 N   0  0  0  0  0  0  0  0  0  0  0  0
    1.3948  -12.1089   21.3623 C   0  0  0  0  0  0  0  0  0  0  0  0
    4.2182   -9.0934   16.9639 C   0  0  0  0  0  0  0  0  0  0  0  0
   -0.9523  -10.7391   21.4973 C   0  0  0  0  0  0  0  0  0  0  0  0
    2.9565   -9.4109   17.1254 C   0  0  0  0  0  0  0  0  0  0  0  0
    9.8974   -4.2017   16.3766 C   0  0  0  0  0  0  0  0  0  0  0  0
   11.1805   -2.9513   19.6150 C   0  0  0  0  0  0  0  0  0  0  0  0
    0.6782   -9.2068   16.5207 C   0  0  0  0  0  0  0  0  0  0  0  0
   -0.4538  -11.3958   22.5919 C   0  0  0  0  0  0  0  0  0  0  0  0
    8.2293   -6.0732   16.1839 C   0  0  0  0  0  0  0  0  0  0  0  0
   -0.2595  -10.7766   20.3462 C   0  0  0  0  0  0  0  0  0  0  0  0
    1.4291  -11.9036   18.8946 C   0  0  0  0  0  0  0  0  0  0  0  0
    1.9298   -8.7237   16.4645 N   0  0  0  0  0  0  0  0  0  0  0  0
   10.8768   -4.0205   20.4308 C   0  0  0  0  0  0  0  0  0  0  0  0
    1.4883  -10.9112   18.0511 C   0  0  0  0  0  0  0  0  0  0  0  0
    6.4416   -7.4758   15.6454 C   0  0  0  0  0  0  0  0  0  0  0  0
  1 19  1  0
  2 24  4  0
  2 28  4  0
  3 19  1  0
  4 26  4  0
  4 33  4  0
  5 20  4  0
  5 27  4  0
  6 16  1  0
  6 21  1  0
  7 13  4  0
  7 25  4  0
  8 16  4  0
  8 17  4  0
  9 14  4  0
  9 17  4  0
 10 14  4  0
 10 32  4  0
 11 20  4  0
 11 29  4  0
 11 30  1  0
 12 18  1  0
 12 23  4  0
 12 33  4  0
 13 14  4  0
 13 24  4  0
 15 28  4  0
 15 34  4  0
 16 34  4  0
 17 28  4  0
 19 32  1  0
 21 23  1  0
 22 27  4  0
 22 29  4  0
 23 31  4  0
 25 32  4  0
 26 31  4  0
 30 33  1  0
M  END
$$$$

 Created by Python create_sdf_string function

 34 84  0  0  0  0  0  0  0  0999 V2000
   10.6710   -2.9368   22.4832 C   0  0  0  0  0  0  0  0  0  0  0  0
    9.0242   -4.9723   15.6112 C   0  0  0  0  0  0  0  0  0  0  0  0
   11.2916   -5.3680   22.6183 C   0  0  0  0  0  0  0  0  0  0  0  0
    0.7973  -10.1102   17.4791 N   0  0  0  0  0  0  0  0  0  0  0  0
    0.6892  -12.4294   22.4449 C   0  0  0  0  0  0  0  0  0  0  0  0
    5.6688   -8.8934   18.0990 N   0  0  0  0  0  0  0  0  0  0  0  0
   11.1223   -3.1819   18.1844 C   0  0  0  0  0  0  0  0  0  0  0  0
    7.7041   -7.6997   18.3729 N   0  0  0  0  0  0  0  0  0  0  0  0
    8.6686   -5.4369   18.4753 N   0  0  0  0  0  0  0  0  0  0  0  0
   10.3063   -4.9747   19.9444 C   0  0  0  0  0  0  0  0  0  0  0  0
    0.9054  -11.8483   20.4303 C   0  0  0  0  0  0  0  0  0  0  0  0
   10.4926   -4.2917   17.4374 C   0  0  0  0  0  0  0  0  0  0  0  0
    9.7348   -5.3028   18.4518 C   0  0  0  0  0  0  0  0  0  0  0  0
    8.8315   -6.6216   15.0404 C   0  0  0  0  0  0  0  0  0  0  0  0
    8.2684   -6.3859   17.7559 C   0  0  0  0  0  0  0  0  0  0  0  0
    2.9834  -11.5199   18.2598 C   0  0  0  0  0  0  0  0  0  0  0  0
   11.1835   -3.9379   22.0815 N   0  0  0  0  0  0  0  0  0  0  0  0
    1.4951  -12.2903   21.4247 O   0  0  0  0  0  0  0  0  0  0  0  0
    3.8004   -9.3700   16.5590 C   0  0  0  0  0  0  0  0  0  0  0  0
   -0.5453  -10.5916   21.5024 C   0  0  0  0  0  0  0  0  0  0  0  0
    9.6738   -4.3168   16.3628 C   0  0  0  0  0  0  0  0  0  0  0  0
   11.4128   -3.1333   19.0233 C   0  0  0  0  0  0  0  0  0  0  0  0
    0.5478   -9.3201   17.0222 C   0  0  0  0  0  0  0  0  0  0  0  0
   -0.0605  -11.5249   22.7603 C   0  0  0  0  0  0  0  0  0  0  0  0
    8.5387   -5.3768   17.0000 C   0  0  0  0  0  0  0  0  0  0  0  0
   -0.2709  -10.9296   20.7501 C   0  0  0  0  0  0  0  0  0  0  0  0
    1.6503  -11.8067   18.9979 C   0  0  0  0  0  0  0  0  0  0  0  0
    1.3764   -9.0620   15.6917 O   0  0  0  0  0  0  0  0  0  0  0  0
   10.9353   -3.6744   20.5989 C   0  0  0  0  0  0  0  0  0  0  0  0
    1.3094  -11.2401   18.0478 C   0  0  0  0  0  0  0  0  0  0  0  0
    3.3359   -9.8797   17.6511 He  0  0  0  0  0  0  0  0  0  0  0  0
    6.8218   -6.7202   16.9577 He  0  0  0  0  0  0  0  0  0  0  0  0
    2.9862   -9.5853   17.1122 He  0  0  0  0  0  0  0  0  0  0  0  0
    6.4834   -7.3119   16.0433 He  0  0  0  0  0  0  0  0  0  0  0  0
  1 17  3  0
  2  8  4  0
  2 21  4  0
  2 25  4  0
  2 26  2  0
  2 27  1  0
  2 29  4  0
  3 13  3  0
  3 17  1  0
  4  9  2  0
  4 10  3  0
  4 14  4  0
  4 21  2  0
  4 23  4  0
  4 24  4  0
  4 25  4  0
  4 28  1  0
  4 29  3  0
  4 30  4  0
  5  9  4  0
  5 10  4  0
  5 18  4  0
  5 22  1  0
  5 24  4  0
  5 28  1  0
  6  8  4  0
  6 16  3  0
  6 19  1  0
  6 26  3  0
  6 30  3  0
  7 12  4  0
  8 11  4  0
  8 19  3  0
  8 23  4  0
  8 24  2  0
  8 25  1  0
  9 11  4  0
  9 13  1  0
  9 15  3  0
  9 21  1  0
  9 22  1  0
  9 24  4  0
  9 25  4  0
  9 26  1  0
 10 13  4  0
 10 17  2  0
 10 20  2  0
 10 25  1  0
 10 29  4  0
 11 16  4  0
 11 18  4  0
 11 19  4  0
 11 26  4  0
 11 27  1  0
 12 13  2  0
 12 14  3  0
 12 21  4  0
 13 19  4  0
 14 17  3  0
 14 25  4  0
 14 26  1  0
 14 28  4  0
 15 23  4  0
 15 25  4  0
 15 28  4  0
 16 27  4  0
 16 29  2  0
 17 23  4  0
 17 29  1  0
 17 30  1  0
 18 25  1  0
 19 26  3  0
 19 29  1  0
 20 24  4  0
 20 26  4  0
 20 30  2  0
 21 25  1  0
 23 27  3  0
 23 28  4  0
 23 30  4  0
 24 25  4  0
 24 28  1  0
 26 29  1  0
 27 30  1  0
M  END
$$$$

 Created by Python create_sdf_string function

 34 39  0  0  0  0  0  0  0  0999 V2000
   10.7124   -2.8088   22.5456 C   0  0  0  0  0  0  0  0  0  0  0  0
    9.1768   -4.9731   15.7742 C   0  0  0  0  0  0  0  0  0  0  0  0
   11.3010   -5.1180   22.5360 C   0  0  0  0  0  0  0  0  0  0  0  0
    0.5362  -10.3452   17.4336 N   0  0  0  0  0  0  0  0  0  0  0  0
    0.8634  -12.3080   22.5565 C   0  0  0  0  0  0  0  0  0  0  0  0
    5.2646   -8.7438   17.5563 N   0  0  0  0  0  0  0  0  0  0  0  0
   11.0948   -3.1512   18.1561 C   0  0  0  0  0  0  0  0  0  0  0  0
    7.1641   -7.4515   18.1768 N   0  0  0  0  0  0  0  0  0  0  0  0
    8.8478   -6.1067   18.5625 N   0  0  0  0  0  0  0  0  0  0  0  0
   10.2355   -4.9949   19.9932 C   0  0  0  0  0  0  0  0  0  0  0  0
    0.9600  -11.6919   20.3199 C   0  0  0  0  0  0  0  0  0  0  0  0
    2.8556  -10.4529   17.9251 C   0  0  0  0  0  0  0  0  0  0  0  0
   10.2378   -4.1930   17.7541 C   0  0  0  0  0  0  0  0  0  0  0  0
    9.7624   -5.0934   18.7517 C   0  0  0  0  0  0  0  0  0  0  0  0
    7.6721   -6.7151   15.3665 C   0  0  0  0  0  0  0  0  0  0  0  0
    6.6419   -7.7328   17.1405 C   0  0  0  0  0  0  0  0  0  0  0  0
    8.3123   -6.3638   17.6657 C   0  0  0  0  0  0  0  0  0  0  0  0
    3.3285  -11.1639   18.6611 C   0  0  0  0  0  0  0  0  0  0  0  0
   11.1917   -3.8436   21.8166 N   0  0  0  0  0  0  0  0  0  0  0  0
    1.4297  -12.4198   21.3691 C   0  0  0  0  0  0  0  0  0  0  0  0
    4.4033   -8.9727   16.8595 C   0  0  0  0  0  0  0  0  0  0  0  0
   -0.7193  -10.7839   21.7793 C   0  0  0  0  0  0  0  0  0  0  0  0
    3.0355   -9.4854   16.9858 C   0  0  0  0  0  0  0  0  0  0  0  0
    9.9379   -4.2335   16.4282 C   0  0  0  0  0  0  0  0  0  0  0  0
   11.3166   -3.0079   19.5443 C   0  0  0  0  0  0  0  0  0  0  0  0
    0.7763   -9.4574   16.4367 C   0  0  0  0  0  0  0  0  0  0  0  0
   -0.1766  -11.4991   22.8177 C   0  0  0  0  0  0  0  0  0  0  0  0
    8.4136   -6.0261   16.2917 C   0  0  0  0  0  0  0  0  0  0  0  0
   -0.1875  -10.8459   20.5495 C   0  0  0  0  0  0  0  0  0  0  0  0
    1.6741  -11.7488   19.0613 C   0  0  0  0  0  0  0  0  0  0  0  0
    1.9376   -8.9674   16.2241 N   0  0  0  0  0  0  0  0  0  0  0  0
   10.9603   -3.9313   20.4455 C   0  0  0  0  0  0  0  0  0  0  0  0
    1.5380  -10.8685   18.1009 C   0  0  0  0  0  0  0  0  0  0  0  0
    6.7546   -7.5279   15.8786 C   0  0  0  0  0  0  0  0  0  0  0  0
  1 19  1  0
  2 24  4  0
  2 28  4  0
  3 19  1  0
  4 26  4  0
  4 33  4  0
  5 20  4  0
  5 27  4  0
  6 16  1  0
  6 21  1  0
  7 13  4  0
  7 25  4  0
  8 16  4  0
  8 17  4  0
  9 14  4  0
  9 17  4  0
 10 14  4  0
 10 32  4  0
 11 20  4  0
 11 29  4  0
 11 30  1  0
 12 18  4  0
 12 23  4  0
 12 33  4  0
 13 14  4  0
 13 24  4  0
 15 28  4  0
 15 34  4  0
 16 34  4  0
 17 28  4  0
 18 30  4  0
 19 32  1  0
 21 23  1  0
 22 27  4  0
 22 29  4  0
 23 31  4  0
 25 32  4  0
 26 31  4  0
 30 33  1  0
M  END
$$$$

 Created by Python create_sdf_string function

 34 82  0  0  0  0  0  0  0  0999 V2000
   10.5691   -2.6357   22.7512 Br  0  0  0  0  0  0  0  0  0  0  0  0
   11.2313   -5.2992   22.2308 N   0  0  0  0  0  0  0  0  0  0  0  0
    0.7220  -12.0278   22.7948 C   0  0  0  0  0  0  0  0  0  0  0  0
    5.8364   -9.0438   17.8627 C   0  0  0  0  0  0  0  0  0  0  0  0
   11.0238   -3.4948   17.6811 C   0  0  0  0  0  0  0  0  0  0  0  0
    9.7349   -6.3016   18.9004 N   0  0  0  0  0  0  0  0  0  0  0  0
   10.5983   -5.2271   19.8536 C   0  0  0  0  0  0  0  0  0  0  0  0
    0.9120  -12.1457   20.3221 C   0  0  0  0  0  0  0  0  0  0  0  0
   10.4395   -3.9558   17.9207 C   0  0  0  0  0  0  0  0  0  0  0  0
    9.3812   -4.9114   18.5182 C   0  0  0  0  0  0  0  0  0  0  0  0
    6.7600   -5.8211   15.0402 C   0  0  0  0  0  0  0  0  0  0  0  0
    6.4573   -7.9588   16.5609 C   0  0  0  0  0  0  0  0  0  0  0  0
    8.2479   -6.3333   17.4496 C   0  0  0  0  0  0  0  0  0  0  0  0
    3.8381  -11.1698   18.9542 C   0  0  0  0  0  0  0  0  0  0  0  0
   11.0997   -4.0078   21.5290 N   0  0  0  0  0  0  0  0  0  0  0  0
    1.6946  -12.5495   21.4706 C   0  0  0  0  0  0  0  0  0  0  0  0
    4.3943   -9.7810   16.7353 C   0  0  0  0  0  0  0  0  0  0  0  0
   -1.0344  -11.0865   21.6739 C   0  0  0  0  0  0  0  0  0  0  0  0
    3.3042   -9.7047   16.7944 C   0  0  0  0  0  0  0  0  0  0  0  0
    9.9668   -4.3326   16.4086 N   0  0  0  0  0  0  0  0  0  0  0  0
   11.1352   -2.7615   19.8652 C   0  0  0  0  0  0  0  0  0  0  0  0
    1.4065   -9.1957   17.7822 P   0  0  0  0  0  0  0  0  0  0  0  0
   -0.0510  -11.4861   22.9893 C   0  0  0  0  0  0  0  0  0  0  0  0
    7.4633   -5.9491   16.1912 C   0  0  0  0  0  0  0  0  0  0  0  0
   -0.0074  -10.8762   20.4393 C   0  0  0  0  0  0  0  0  0  0  0  0
    1.6478  -11.5757   19.0188 C   0  0  0  0  0  0  0  0  0  0  0  0
   10.6762   -4.0258   20.4817 C   0  0  0  0  0  0  0  0  0  0  0  0
    1.6663  -10.9562   18.0996 C   0  0  0  0  0  0  0  0  0  0  0  0
    6.6615   -7.6871   16.2079 C   0  0  0  0  0  0  0  0  0  0  0  0
    9.0869   -5.0879   15.8487 He  0  0  0  0  0  0  0  0  0  0  0  0
    1.2500  -10.7843   17.0495 He  0  0  0  0  0  0  0  0  0  0  0  0
    6.6108   -7.3356   17.9175 He  0  0  0  0  0  0  0  0  0  0  0  0
    3.2523  -10.9128   18.5601 He  0  0  0  0  0  0  0  0  0  0  0  0
    1.4766   -7.9900   16.1884 He  0  0  0  0  0  0  0  0  0  0  0  0
  1  5  3  0
  1  7  1  0
  1  9  2  0
  1 12  2  0
  1 14  1  0
  1 15  1  0
  1 17  2  0
  1 19  4  0
  1 20  3  0
  1 21  4  0
  1 24  3  0
  1 25  4  0
  2  4  4  0
  2 10  2  0
  2 15  4  0
  2 16  4  0
  3  4  4  0
  3  5  3  0
  3 16  4  0
  3 23  4  0
  3 28  2  0
  4  7  4  0
  4  9  3  0
  5  9  4  0
  5 14  4  0
  5 17  4  0
  5 21  4  0
  5 22  1  0
  5 24  1  0
  6 10  4  0
  6 13  2  0
  6 14  3  0
  6 25  4  0
  6 29  2  0
  7 10  4  0
  8 11  3  0
  8 12  4  0
  8 16  4  0
  8 17  1  0
  8 25  4  0
  8 26  1  0
  9 10  4  0
  9 19  1  0
  9 20  4  0
  9 24  4  0
  9 28  3  0
  9 29  4  0
 10 12  4  0
 10 24  2  0
 11 24  4  0
 11 25  4  0
 11 26  2  0
 11 29  4  0
 12 13  1  0
 12 16  3  0
 12 20  1  0
 12 21  2  0
 12 25  4  0
 12 29  4  0
 13 17  4  0
 13 26  4  0
 14 20  2  0
 14 24  4  0
 14 28  1  0
 14 29  1  0
 15 22  3  0
 15 26  3  0
 15 27  1  0
 16 24  4  0
 17 24  1  0
 17 25  4  0
 17 27  2  0
 18 23  4  0
 18 25  4  0
 20 29  3  0
 21 24  4  0
 21 25  3  0
 21 27  4  0
 21 28  2  0
 23 27  1  0
 24 25  1  0
 26 28  4  0
M  END
$$$$

 Created by Python create_sdf_string function

 34 38  0  0  0  0  0  0  0  0999 V2000
   10.7537   -2.8108   22.4413 O   0  0  0  0  0  0  0  0  0  0  0  0
    8.8297   -4.9058   15.9208 C   0  0  0  0  0  0  0  0  0  0  0  0
   11.1860   -5.0308   22.5708 O   0  0  0  0  0  0  0  0  0  0  0  0
    0.7844  -10.2929   17.5482 N   0  0  0  0  0  0  0  0  0  0  0  0
    0.9438  -12.2137   22.7000 C   0  0  0  0  0  0  0  0  0  0  0  0
    5.6058   -9.1686   17.3698 C   0  0  0  0  0  0  0  0  0  0  0  0
   10.9181   -3.1766   18.1343 C   0  0  0  0  0  0  0  0  0  0  0  0
    7.2568   -7.4402   17.8419 C   0  0  0  0  0  0  0  0  0  0  0  0
    9.0162   -6.2644   18.3470 N   0  0  0  0  0  0  0  0  0  0  0  0
   10.2974   -5.1552   19.9275 C   0  0  0  0  0  0  0  0  0  0  0  0
    1.0002  -11.7903   20.3498 C   0  0  0  0  0  0  0  0  0  0  0  0
    3.1067  -10.5840   18.1177 C   0  0  0  0  0  0  0  0  0  0  0  0
   10.1977   -4.2300   17.7403 C   0  0  0  0  0  0  0  0  0  0  0  0
    9.8458   -5.2381   18.6459 C   0  0  0  0  0  0  0  0  0  0  0  0
    7.1669   -6.4156   15.3596 C   0  0  0  0  0  0  0  0  0  0  0  0
    6.4039   -7.9074   16.9626 C   0  0  0  0  0  0  0  0  0  0  0  0
    8.1589   -6.5447   17.4890 C   0  0  0  0  0  0  0  0  0  0  0  0
    3.9465  -11.1690   18.7537 F   0  0  0  0  0  0  0  0  0  0  0  0
   11.0070   -3.8915   21.8219 N   0  0  0  0  0  0  0  0  0  0  0  0
    1.5735  -12.3058   21.4876 C   0  0  0  0  0  0  0  0  0  0  0  0
    4.6087   -9.4569   16.7750 C   0  0  0  0  0  0  0  0  0  0  0  0
   -0.8180  -10.9645   21.7472 C   0  0  0  0  0  0  0  0  0  0  0  0
    3.3298   -9.5508   17.1002 C   0  0  0  0  0  0  0  0  0  0  0  0
    9.7838   -4.3069   16.4366 N   0  0  0  0  0  0  0  0  0  0  0  0
   11.1588   -2.9858   19.5304 C   0  0  0  0  0  0  0  0  0  0  0  0
    1.0743   -9.3228   16.7345 C   0  0  0  0  0  0  0  0  0  0  0  0
   -0.2137  -11.5176   22.8464 C   0  0  0  0  0  0  0  0  0  0  0  0
    8.0691   -5.9404   16.2240 C   0  0  0  0  0  0  0  0  0  0  0  0
   -0.2135  -11.1131   20.4997 C   0  0  0  0  0  0  0  0  0  0  0  0
    1.6463  -12.0305   19.0642 C   0  0  0  0  0  0  0  0  0  0  0  0
    2.1785   -8.8525   16.4910 C   0  0  0  0  0  0  0  0  0  0  0  0
   10.8684   -3.9901   20.4143 C   0  0  0  0  0  0  0  0  0  0  0  0
    1.8112  -10.9483   18.1770 C   0  0  0  0  0  0  0  0  0  0  0  0
    6.2987   -7.3778   15.7385 C   0  0  0  0  0  0  0  0  0  0  0  0
  1 19  1  0
  2 24  4  0
  2 28  4  0
  3 19  1  0
  4 26  4  0
  4 33  4  0
  5 20  4  0
  5 27  4  0
  6 16  1  0
  6 21  1  0
  7 13  4  0
  7 25  4  0
  8 16  4  0
  8 17  4  0
  9 14  4  0
  9 17  4  0
 10 14  4  0
 10 32  4  0
 11 20  4  0
 11 29  4  0
 11 30  1  0
 12 18  4  0
 12 23  4  0
 12 33  4  0
 13 14  4  0
 13 24  4  0
 15 28  4  0
 15 34  4  0
 16 34  4  0
 17 28  4  0
 19 32  1  0
 21 23  1  0
 22 27  4  0
 22 29  4  0
 23 31  4  0
 25 32  4  0
 26 31  4  0
 30 33  1  0
M  END
$$$$

 Created by Python create_sdf_string function

 34 68  0  0  0  0  0  0  0  0999 V2000
   10.8318   -2.9660   22.4199 O   0  0  0  0  0  0  0  0  0  0  0  0
    8.9400   -5.1905   15.8664 C   0  0  0  0  0  0  0  0  0  0  0  0
   11.4666   -5.0353   22.6237 O   0  0  0  0  0  0  0  0  0  0  0  0
    0.9229  -12.2192   22.4811 C   0  0  0  0  0  0  0  0  0  0  0  0
    6.0408   -8.7768   17.5062 C   0  0  0  0  0  0  0  0  0  0  0  0
   10.8978   -2.7823   17.6918 C   0  0  0  0  0  0  0  0  0  0  0  0
    7.7506   -7.5560   17.3393 C   0  0  0  0  0  0  0  0  0  0  0  0
    8.9378   -6.4169   17.6223 N   0  0  0  0  0  0  0  0  0  0  0  0
   10.3744   -5.1693   19.8258 C   0  0  0  0  0  0  0  0  0  0  0  0
    2.4170  -10.7586   18.2015 C   0  0  0  0  0  0  0  0  0  0  0  0
    9.9095   -4.3304   17.8862 C   0  0  0  0  0  0  0  0  0  0  0  0
    9.7956   -5.2680   18.8398 C   0  0  0  0  0  0  0  0  0  0  0  0
    6.3934   -8.0755   17.4106 C   0  0  0  0  0  0  0  0  0  0  0  0
    8.1382   -6.7000   17.2562 C   0  0  0  0  0  0  0  0  0  0  0  0
    4.0521  -11.5930   18.5298 F   0  0  0  0  0  0  0  0  0  0  0  0
   11.0464   -3.9675   21.6589 N   0  0  0  0  0  0  0  0  0  0  0  0
    1.6378  -12.2049   21.6964 C   0  0  0  0  0  0  0  0  0  0  0  0
    5.0708   -9.7310   17.2835 C   0  0  0  0  0  0  0  0  0  0  0  0
   -0.8584  -10.8148   21.7282 C   0  0  0  0  0  0  0  0  0  0  0  0
    3.3879   -9.7921   17.0314 C   0  0  0  0  0  0  0  0  0  0  0  0
   10.2897   -4.3393   16.3553 N   0  0  0  0  0  0  0  0  0  0  0  0
   11.2474   -3.3390   19.5571 O   0  0  0  0  0  0  0  0  0  0  0  0
    0.4849  -10.3164   16.7446 C   0  0  0  0  0  0  0  0  0  0  0  0
    0.0339  -11.3332   22.2594 C   0  0  0  0  0  0  0  0  0  0  0  0
    8.3835   -5.0538   16.3817 C   0  0  0  0  0  0  0  0  0  0  0  0
    0.0056  -11.1162   20.5631 Se  0  0  0  0  0  0  0  0  0  0  0  0
    1.3227  -12.2696   19.2707 C   0  0  0  0  0  0  0  0  0  0  0  0
    1.5987  -11.0436   18.0371 C   0  0  0  0  0  0  0  0  0  0  0  0
    6.1788   -7.4517   15.9390 C   0  0  0  0  0  0  0  0  0  0  0  0
    1.1398   -9.8145   17.2530 He  0  0  0  0  0  0  0  0  0  0  0  0
    1.1288  -11.4857   20.6985 He  0  0  0  0  0  0  0  0  0  0  0  0
    7.2239   -6.6099   15.1284 He  0  0  0  0  0  0  0  0  0  0  0  0
    1.9001   -8.3341   15.7816 He  0  0  0  0  0  0  0  0  0  0  0  0
   10.7766   -3.9287   20.3092 He  0  0  0  0  0  0  0  0  0  0  0  0
  2  8  2  0
  2 13  4  0
  2 21  4  0
  2 25  3  0
  2 27  2  0
  3  4  3  0
  3  8  1  0
  3 16  1  0
  4 10  1  0
  4 17  4  0
  4 24  4  0
  5  9  4  0
  5 13  2  0
  5 18  1  0
  5 22  3  0
  5 24  1  0
  5 26  4  0
  5 27  1  0
  6  9  3  0
  6 10  1  0
  6 11  4  0
  6 22  4  0
  7 13  1  0
  7 14  4  0
  7 15  3  0
  7 20  1  0
  7 21  3  0
  7 27  4  0
  8 14  4  0
  8 18  1  0
  8 22  2  0
  8 27  3  0
  9 11  2  0
  9 12  4  0
  9 17  1  0
 10 14  4  0
 10 15  4  0
 10 16  1  0
 10 20  4  0
 10 23  3  0
 10 27  1  0
 10 28  4  0
 10 29  3  0
 11 14  1  0
 11 18  2  0
 11 21  4  0
 11 24  2  0
 11 25  4  0
 12 15  2  0
 13 15  4  0
 13 16  4  0
 13 17  3  0
 13 29  4  0
 15 21  4  0
 15 24  2  0
 16 22  2  0
 18 23  1  0
 19 24  4  0
 19 25  3  0
 20 26  4  0
 21 26  4  0
 21 28  1  0
 23 24  3  0
 23 27  3  0
 23 29  2  0
 25 26  4  0
 26 29  3  0
 27 28  1  0
M  END
$$$$

 Created by Python create_sdf_string function

 34 38  0  0  0  0  0  0  0  0999 V2000
   10.8500   -2.8629   22.3734 O   0  0  0  0  0  0  0  0  0  0  0  0
    8.9862   -4.9477   15.8527 C   0  0  0  0  0  0  0  0  0  0  0  0
   11.2953   -5.0219   22.4764 O   0  0  0  0  0  0  0  0  0  0  0  0
    0.7108  -10.4643   17.2931 N   0  0  0  0  0  0  0  0  0  0  0  0
    0.9554  -12.0618   22.6975 C   0  0  0  0  0  0  0  0  0  0  0  0
    5.5129   -9.0229   17.5590 C   0  0  0  0  0  0  0  0  0  0  0  0
   10.9543   -3.0848   18.1525 C   0  0  0  0  0  0  0  0  0  0  0  0
    7.5082   -7.7164   17.6854 C   0  0  0  0  0  0  0  0  0  0  0  0
    9.1655   -6.2608   18.1879 N   0  0  0  0  0  0  0  0  0  0  0  0
   10.3528   -5.2013   19.9031 C   0  0  0  0  0  0  0  0  0  0  0  0
    0.9731  -11.7783   20.3257 C   0  0  0  0  0  0  0  0  0  0  0  0
    2.8286  -10.6499   18.0824 C   0  0  0  0  0  0  0  0  0  0  0  0
   10.2981   -4.1867   17.7090 C   0  0  0  0  0  0  0  0  0  0  0  0
    9.9404   -5.2565   18.5916 C   0  0  0  0  0  0  0  0  0  0  0  0
    7.1437   -6.3667   15.4075 C   0  0  0  0  0  0  0  0  0  0  0  0
    6.4710   -8.0334   16.9824 C   0  0  0  0  0  0  0  0  0  0  0  0
    8.3191   -6.6349   17.3233 C   0  0  0  0  0  0  0  0  0  0  0  0
    3.7974  -11.2618   18.7697 F   0  0  0  0  0  0  0  0  0  0  0  0
   11.0629   -3.9483   21.8475 N   0  0  0  0  0  0  0  0  0  0  0  0
    1.5879  -12.2307   21.4499 C   0  0  0  0  0  0  0  0  0  0  0  0
    4.6556   -9.6116   17.1102 C   0  0  0  0  0  0  0  0  0  0  0  0
   -0.7419  -10.8360   21.7412 C   0  0  0  0  0  0  0  0  0  0  0  0
    3.2993   -9.7847   17.1893 C   0  0  0  0  0  0  0  0  0  0  0  0
    9.8728   -4.2523   16.4278 N   0  0  0  0  0  0  0  0  0  0  0  0
   11.1425   -2.9547   19.5998 C   0  0  0  0  0  0  0  0  0  0  0  0
    0.9992   -9.5756   16.4523 C   0  0  0  0  0  0  0  0  0  0  0  0
   -0.1514  -11.3858   22.8290 C   0  0  0  0  0  0  0  0  0  0  0  0
    8.1853   -5.9640   16.1791 C   0  0  0  0  0  0  0  0  0  0  0  0
   -0.1997  -10.9675   20.5098 C   0  0  0  0  0  0  0  0  0  0  0  0
    1.3321  -12.2271   19.0200 C   0  0  0  0  0  0  0  0  0  0  0  0
    2.2800   -9.1300   16.3581 C   0  0  0  0  0  0  0  0  0  0  0  0
   10.8806   -4.0152   20.4173 C   0  0  0  0  0  0  0  0  0  0  0  0
    1.6147  -11.0794   18.1001 C   0  0  0  0  0  0  0  0  0  0  0  0
    6.3001   -7.3328   15.7980 C   0  0  0  0  0  0  0  0  0  0  0  0
  1 19  2  0
  2 24  4  0
  2 28  4  0
  3 19  1  0
  4 26  4  0
  4 33  4  0
  5 20  4  0
  5 27  4  0
  6 16  1  0
  6 21  1  0
  7 13  4  0
  7 25  4  0
  8 16  4  0
  8 17  4  0
  9 14  4  0
  9 17  4  0
 10 14  4  0
 10 32  4  0
 11 20  4  0
 11 29  4  0
 11 30  1  0
 12 18  1  0
 12 23  4  0
 12 33  4  0
 13 14  4  0
 13 24  4  0
 15 28  4  0
 15 34  4  0
 16 34  4  0
 17 28  4  0
 19 32  1  0
 21 23  1  0
 22 27  4  0
 22 29  4  0
 23 31  4  0
 25 32  4  0
 26 31  4  0
 30 33  1  0
M  END
$$$$

 Created by Python create_sdf_string function

 34 91  0  0  0  0  0  0  0  0999 V2000
   10.4978   -2.6613   22.5290 F   0  0  0  0  0  0  0  0  0  0  0  0
    8.6077   -5.1318   15.7941 C   0  0  0  0  0  0  0  0  0  0  0  0
   11.3317   -5.1114   22.4918 O   0  0  0  0  0  0  0  0  0  0  0  0
    1.2205  -10.3899   17.4275 N   0  0  0  0  0  0  0  0  0  0  0  0
    0.7510  -11.6598   22.8799 Cl  0  0  0  0  0  0  0  0  0  0  0  0
    5.4018   -8.9303   17.6620 C   0  0  0  0  0  0  0  0  0  0  0  0
   11.0577   -2.8780   17.8793 C   0  0  0  0  0  0  0  0  0  0  0  0
    8.1679   -8.2339   17.2820 C   0  0  0  0  0  0  0  0  0  0  0  0
    8.4915   -5.6798   18.2989 N   0  0  0  0  0  0  0  0  0  0  0  0
   10.3515   -5.3626   19.8352 C   0  0  0  0  0  0  0  0  0  0  0  0
    1.2162  -11.8282   19.9607 C   0  0  0  0  0  0  0  0  0  0  0  0
    3.3470  -10.6453   17.7801 C   0  0  0  0  0  0  0  0  0  0  0  0
   10.2036   -4.4110   17.5227 C   0  0  0  0  0  0  0  0  0  0  0  0
    9.9456   -5.1465   18.7041 C   0  0  0  0  0  0  0  0  0  0  0  0
    6.7071   -6.9150   15.3504 B   0  0  0  0  0  0  0  0  0  0  0  0
    7.4297   -8.1181   16.6342 C   0  0  0  0  0  0  0  0  0  0  0  0
    8.5811   -6.6112   17.1634 C   0  0  0  0  0  0  0  0  0  0  0  0
   11.2199   -3.4087   21.8782 N   0  0  0  0  0  0  0  0  0  0  0  0
    1.7011  -12.1041   21.2651 C   0  0  0  0  0  0  0  0  0  0  0  0
    5.1801   -9.8085   17.4377 C   0  0  0  0  0  0  0  0  0  0  0  0
   -1.0046  -10.3347   21.7153 C   0  0  0  0  0  0  0  0  0  0  0  0
    3.4565   -9.5814   17.1765 C   0  0  0  0  0  0  0  0  0  0  0  0
    9.8347   -4.2896   16.0625 N   0  0  0  0  0  0  0  0  0  0  0  0
   11.1712   -2.9808   19.2001 C   0  0  0  0  0  0  0  0  0  0  0  0
    1.0238   -9.5649   17.1741 C   0  0  0  0  0  0  0  0  0  0  0  0
   -0.3100  -11.3287   22.7462 C   0  0  0  0  0  0  0  0  0  0  0  0
    8.5556   -5.7883   16.3684 C   0  0  0  0  0  0  0  0  0  0  0  0
   -0.0125  -10.8551   20.4329 C   0  0  0  0  0  0  0  0  0  0  0  0
    1.6081  -11.9295   18.7896 C   0  0  0  0  0  0  0  0  0  0  0  0
    2.3305   -9.3295   17.5826 C   0  0  0  0  0  0  0  0  0  0  0  0
   11.1451   -4.3058   20.1585 C   0  0  0  0  0  0  0  0  0  0  0  0
    1.5865  -10.9968   17.6513 C   0  0  0  0  0  0  0  0  0  0  0  0
    6.3297   -7.2354   15.8133 C   0  0  0  0  0  0  0  0  0  0  0  0
    4.2469  -11.7992   19.4488 He  0  0  0  0  0  0  0  0  0  0  0  0
  1  4  4  0
  1 11  4  0
  1 15  4  0
  1 18  2  0
  2 13  1  0
  2 23  4  0
  2 25  2  0
  2 27  2  0
  3  6  3  0
  3 15  4  0
  3 18  1  0
  4  6  1  0
  4 19  3  0
  4 23  1  0
  4 25  4  0
  4 32  4  0
  4 33  1  0
  5  6  1  0
  5 13  1  0
  5 19  4  0
  5 26  4  0
  6  9  2  0
  6 10  3  0
  6 16  1  0
  6 19  3  0
  6 20  1  0
  7  8  1  0
  7 13  4  0
  7 14  1  0
  7 16  2  0
  7 24  4  0
  8 14  2  0
  8 15  2  0
  8 16  4  0
  8 18  2  0
  8 31  2  0
  9 14  4  0
  9 15  1  0
  9 17  4  0
  9 19  4  0
  9 32  1  0
 10 14  4  0
 10 19  4  0
 10 28  3  0
 10 31  4  0
 11 14  4  0
 11 18  3  0
 11 19  4  0
 11 28  4  0
 11 29  1  0
 11 30  4  0
 12 18  3  0
 12 22  4  0
 13 14  4  0
 13 17  4  0
 13 20  3  0
 13 23  4  0
 13 25  4  0
 13 32  4  0
 14 27  2  0
 14 28  3  0
 14 30  3  0
 15 26  1  0
 15 27  1  0
 15 32  1  0
 15 33  4  0
 16 17  2  0
 16 20  1  0
 16 23  3  0
 16 26  3  0
 17 27  4  0
 17 33  4  0
 18 31  1  0
 20 22  1  0
 20 27  2  0
 20 33  4  0
 21 26  4  0
 21 28  4  0
 21 29  3  0
 22 30  4  0
 23 24  4  0
 23 30  1  0
 24 27  3  0
 24 31  3  0
 25 30  3  0
 26 30  1  0
 26 32  2  0
 27 31  3  0
 28 30  1  0
 29 32  1  0
 30 31  3  0
M  END
$$$$

 Created by Python create_sdf_string function

 34 38  0  0  0  0  0  0  0  0999 V2000
   10.7193   -2.7534   22.2620 O   0  0  0  0  0  0  0  0  0  0  0  0
    8.7970   -4.9194   15.7930 C   0  0  0  0  0  0  0  0  0  0  0  0
   11.3209   -4.8986   22.4449 O   0  0  0  0  0  0  0  0  0  0  0  0
    0.9165  -10.3469   17.4195 N   0  0  0  0  0  0  0  0  0  0  0  0
    0.9350  -11.8676   22.6473 C   0  0  0  0  0  0  0  0  0  0  0  0
    5.7482   -9.1149   17.6857 C   0  0  0  0  0  0  0  0  0  0  0  0
   10.9424   -3.1310   18.0185 C   0  0  0  0  0  0  0  0  0  0  0  0
    7.8719   -7.9106   17.5289 C   0  0  0  0  0  0  0  0  0  0  0  0
    9.1260   -6.2528   18.2312 N   0  0  0  0  0  0  0  0  0  0  0  0
   10.2476   -5.1010   19.8855 C   0  0  0  0  0  0  0  0  0  0  0  0
    0.9054  -11.7686   20.2481 C   0  0  0  0  0  0  0  0  0  0  0  0
    3.1208  -10.7808   18.2331 C   0  0  0  0  0  0  0  0  0  0  0  0
   10.1325   -4.2159   17.6494 C   0  0  0  0  0  0  0  0  0  0  0  0
    9.8164   -5.1893   18.5729 C   0  0  0  0  0  0  0  0  0  0  0  0
    7.0771   -6.4348   15.3625 C   0  0  0  0  0  0  0  0  0  0  0  0
    6.6886   -8.1542   16.9280 C   0  0  0  0  0  0  0  0  0  0  0  0
    8.4062   -6.6931   17.3113 C   0  0  0  0  0  0  0  0  0  0  0  0
    3.9779  -11.5415   18.9447 F   0  0  0  0  0  0  0  0  0  0  0  0
   11.0367   -3.8015   21.7774 N   0  0  0  0  0  0  0  0  0  0  0  0
    1.4925  -12.1068   21.4292 C   0  0  0  0  0  0  0  0  0  0  0  0
    4.8857   -9.6524   17.1784 C   0  0  0  0  0  0  0  0  0  0  0  0
   -0.7941  -10.6658   21.6164 C   0  0  0  0  0  0  0  0  0  0  0  0
    3.5629   -9.7718   17.3966 C   0  0  0  0  0  0  0  0  0  0  0  0
    9.6585   -4.2089   16.3838 N   0  0  0  0  0  0  0  0  0  0  0  0
   11.2061   -2.9856   19.4275 C   0  0  0  0  0  0  0  0  0  0  0  0
    1.3986   -9.2668   16.7307 C   0  0  0  0  0  0  0  0  0  0  0  0
   -0.1717  -11.1289   22.7355 C   0  0  0  0  0  0  0  0  0  0  0  0
    8.1059   -5.9971   16.1482 C   0  0  0  0  0  0  0  0  0  0  0  0
   -0.2320  -10.9545   20.3970 C   0  0  0  0  0  0  0  0  0  0  0  0
    1.3682  -12.2135   18.9782 C   0  0  0  0  0  0  0  0  0  0  0  0
    2.6457   -8.9292   16.7738 C   0  0  0  0  0  0  0  0  0  0  0  0
   10.8648   -3.9581   20.3238 C   0  0  0  0  0  0  0  0  0  0  0  0
    1.7579  -11.0888   18.1615 C   0  0  0  0  0  0  0  0  0  0  0  0
    6.3779   -7.4230   15.7361 C   0  0  0  0  0  0  0  0  0  0  0  0
  1 19  2  0
  2 24  4  0
  2 28  4  0
  3 19  1  0
  4 26  4  0
  4 33  4  0
  5 20  4  0
  5 27  4  0
  6 16  1  0
  6 21  1  0
  7 13  4  0
  7 25  4  0
  8 16  4  0
  8 17  4  0
  9 14  4  0
  9 17  4  0
 10 14  4  0
 10 32  4  0
 11 20  4  0
 11 29  4  0
 11 30  1  0
 12 18  1  0
 12 23  4  0
 12 33  4  0
 13 14  4  0
 13 24  4  0
 15 28  4  0
 15 34  4  0
 16 34  4  0
 17 28  4  0
 19 32  1  0
 21 23  1  0
 22 27  4  0
 22 29  4  0
 23 31  4  0
 25 32  4  0
 26 31  4  0
 30 33  1  0
M  END
$$$$

 Created by Python create_sdf_string function

 34 82  0  0  0  0  0  0  0  0999 V2000
   10.5664   -2.7026   22.4652 O   0  0  0  0  0  0  0  0  0  0  0  0
    9.0197   -5.1285   15.6014 C   0  0  0  0  0  0  0  0  0  0  0  0
   11.5048   -4.7431   22.2358 O   0  0  0  0  0  0  0  0  0  0  0  0
    0.5622  -10.8651   17.9726 N   0  0  0  0  0  0  0  0  0  0  0  0
    0.5510  -11.7265   22.7072 C   0  0  0  0  0  0  0  0  0  0  0  0
   10.9101   -3.0336   17.9385 C   0  0  0  0  0  0  0  0  0  0  0  0
    6.7196   -8.0320   16.8851 C   0  0  0  0  0  0  0  0  0  0  0  0
    9.2847   -7.0070   18.4630 N   0  0  0  0  0  0  0  0  0  0  0  0
   10.2233   -5.1633   20.1939 C   0  0  0  0  0  0  0  0  0  0  0  0
    0.8959  -11.9780   19.9783 C   0  0  0  0  0  0  0  0  0  0  0  0
    3.4175  -10.8145   18.6431 C   0  0  0  0  0  0  0  0  0  0  0  0
    7.1217   -5.9351   14.7015 C   0  0  0  0  0  0  0  0  0  0  0  0
    7.5129   -7.9257   16.9731 C   0  0  0  0  0  0  0  0  0  0  0  0
    8.2587   -6.6569   17.0799 C   0  0  0  0  0  0  0  0  0  0  0  0
    3.8645  -11.0941   18.1624 F   0  0  0  0  0  0  0  0  0  0  0  0
   11.4154   -3.9425   21.8137 N   0  0  0  0  0  0  0  0  0  0  0  0
    1.8004  -12.1939   21.7311 C   0  0  0  0  0  0  0  0  0  0  0  0
    4.4383   -9.8935   16.9340 I   0  0  0  0  0  0  0  0  0  0  0  0
   -0.8385  -10.6309   21.6959 C   0  0  0  0  0  0  0  0  0  0  0  0
    3.5036   -9.8558   17.3667 C   0  0  0  0  0  0  0  0  0  0  0  0
    9.8870   -4.3858   16.2490 N   0  0  0  0  0  0  0  0  0  0  0  0
   11.3749   -3.3849   19.4028 C   0  0  0  0  0  0  0  0  0  0  0  0
    0.4992   -9.2361   16.1461 C   0  0  0  0  0  0  0  0  0  0  0  0
   -0.3605  -11.3243   22.5262 C   0  0  0  0  0  0  0  0  0  0  0  0
    8.6112   -6.4786   15.8459 C   0  0  0  0  0  0  0  0  0  0  0  0
   -0.0153  -10.6295   20.6375 N   0  0  0  0  0  0  0  0  0  0  0  0
    1.4421  -12.2420   19.3655 C   0  0  0  0  0  0  0  0  0  0  0  0
    3.0054   -9.2857   17.0397 F   0  0  0  0  0  0  0  0  0  0  0  0
   10.9336   -3.9622   20.5636 C   0  0  0  0  0  0  0  0  0  0  0  0
    1.5164  -11.2414   17.7658 C   0  0  0  0  0  0  0  0  0  0  0  0
    6.2540   -7.7113   15.7142 C   0  0  0  0  0  0  0  0  0  0  0  0
    4.7427   -9.5015   18.6651 He  0  0  0  0  0  0  0  0  0  0  0  0
   10.1477   -4.3730   17.7472 He  0  0  0  0  0  0  0  0  0  0  0  0
    9.9399   -4.9726   18.3114 He  0  0  0  0  0  0  0  0  0  0  0  0
  1  5  3  0
  1  7  1  0
  1 16  2  0
  1 18  4  0
  1 23  3  0
  2  7  1  0
  2 14  4  0
  2 21  4  0
  2 25  4  0
  2 28  1  0
  2 29  1  0
  3 11  1  0
  3 12  2  0
  3 16  1  0
  3 28  1  0
  4 16  4  0
  4 19  4  0
  4 23  2  0
  5  8  3  0
  5 17  4  0
  5 24  4  0
  5 25  1  0
  5 27  2  0
  5 28  1  0
  5 31  2  0
  6 21  4  0
  6 22  4  0
  7 13  4  0
  7 14  4  0
  7 15  1  0
  7 26  1  0
  7 29  4  0
  8 15  2  0
  8 17  3  0
  8 22  2  0
  8 25  2  0
  8 26  4  0
  9 11  2  0
  9 13  3  0
  9 28  2  0
  9 29  4  0
 10 17  4  0
 10 26  4  0
 10 27  1  0
 11 15  1  0
 11 21  3  0
 11 30  3  0
 12 15  3  0
 12 21  3  0
 12 25  2  0
 12 28  3  0
 12 31  4  0
 13 19  3  0
 13 20  2  0
 13 21  1  0
 13 24  4  0
 13 29  4  0
 13 30  2  0
 14 15  2  0
 14 25  4  0
 15 16  1  0
 15 23  4  0
 15 29  3  0
 16 29  1  0
 17 29  1  0
 18 25  1  0
 18 26  2  0
 18 30  4  0
 19 22  3  0
 19 26  4  0
 20 28  3  0
 20 29  3  0
 22 23  4  0
 22 29  4  0
 23 27  1  0
 23 28  1  0
 24 25  1  0
 25 28  4  0
 25 31  1  0
 27 28  4  0
 27 30  1  0
 28 31  3  0
M  END
$$$$

 Created by Python create_sdf_string function

 34 37  0  0  0  0  0  0  0  0999 V2000
   10.7512   -2.7984   22.3824 O   0  0  0  0  0  0  0  0  0  0  0  0
    8.9208   -5.0709   15.7838 C   0  0  0  0  0  0  0  0  0  0  0  0
   11.5057   -4.8805   22.4905 O   0  0  0  0  0  0  0  0  0  0  0  0
    0.7121  -10.5968   17.4232 N   0  0  0  0  0  0  0  0  0  0  0  0
    0.8133  -11.9462   22.7563 C   0  0  0  0  0  0  0  0  0  0  0  0
    5.3229   -9.5949   17.9570 O   0  0  0  0  0  0  0  0  0  0  0  0
   10.8490   -3.2691   18.0621 C   0  0  0  0  0  0  0  0  0  0  0  0
    7.4585   -7.9651   17.4171 C   0  0  0  0  0  0  0  0  0  0  0  0
    9.1644   -6.5132   18.2518 N   0  0  0  0  0  0  0  0  0  0  0  0
   10.3505   -5.2646   19.9376 C   0  0  0  0  0  0  0  0  0  0  0  0
    0.9441  -11.7299   20.3753 C   0  0  0  0  0  0  0  0  0  0  0  0
    3.0895  -10.7020   18.1517 C   0  0  0  0  0  0  0  0  0  0  0  0
   10.1659   -4.4153   17.7077 C   0  0  0  0  0  0  0  0  0  0  0  0
    9.9083   -5.3916   18.6118 C   0  0  0  0  0  0  0  0  0  0  0  0
    7.2434   -6.5244   15.1903 C   0  0  0  0  0  0  0  0  0  0  0  0
    6.5410   -8.0751   16.7157 C   0  0  0  0  0  0  0  0  0  0  0  0
    8.3005   -6.8245   17.2103 C   0  0  0  0  0  0  0  0  0  0  0  0
    3.9499  -11.0965   18.5994 F   0  0  0  0  0  0  0  0  0  0  0  0
   11.0675   -3.8476   21.8524 C   0  0  0  0  0  0  0  0  0  0  0  0
    1.4961  -12.1531   21.5850 C   0  0  0  0  0  0  0  0  0  0  0  0
    4.7004   -9.4151   17.1097 N   0  0  0  0  0  0  0  0  0  0  0  0
   -0.8264  -10.6860   21.6530 C   0  0  0  0  0  0  0  0  0  0  0  0
    3.3718   -9.7196   17.1755 C   0  0  0  0  0  0  0  0  0  0  0  0
    9.7582   -4.4361   16.4426 N   0  0  0  0  0  0  0  0  0  0  0  0
   11.0951   -3.0551   19.4811 C   0  0  0  0  0  0  0  0  0  0  0  0
    1.0918   -9.5706   16.5814 C   0  0  0  0  0  0  0  0  0  0  0  0
   -0.2967  -11.2065   22.7959 C   0  0  0  0  0  0  0  0  0  0  0  0
    8.1727   -6.1403   16.0795 C   0  0  0  0  0  0  0  0  0  0  0  0
   -0.1784  -10.8990   20.4567 N   0  0  0  0  0  0  0  0  0  0  0  0
    1.4611  -12.2286   19.0940 C   0  0  0  0  0  0  0  0  0  0  0  0
    2.3852   -9.1720   16.5003 N   0  0  0  0  0  0  0  0  0  0  0  0
   10.8592   -4.0416   20.3770 C   0  0  0  0  0  0  0  0  0  0  0  0
    1.6256  -11.1338   18.2082 C   0  0  0  0  0  0  0  0  0  0  0  0
    6.3838   -7.4311   15.4796 C   0  0  0  0  0  0  0  0  0  0  0  0
  1 19  2  0
  2 24  4  0
  2 28  4  0
  3 19  1  0
  4 26  2  0
  4 33  4  0
  5 20  4  0
  5 27  4  0
  6 21  1  0
  7 13  4  0
  7 25  4  0
  8 16  4  0
  8 17  4  0
  9 14  4  0
  9 17  4  0
 10 14  4  0
 10 32  4  0
 11 20  4  0
 11 29  4  0
 11 30  1  0
 12 18  1  0
 12 23  4  0
 12 33  4  0
 13 14  4  0
 13 24  4  0
 15 28  4  0
 15 34  4  0
 16 34  4  0
 17 28  4  0
 19 32  1  0
 21 23  1  0
 22 27  4  0
 22 29  4  0
 23 31  4  0
 25 32  4  0
 26 31  1  0
 30 33  1  0
M  END
$$$$

 Created by Python create_sdf_string function

 34 92  0  0  0  0  0  0  0  0999 V2000
   10.9252   -2.8597   22.4965 F   0  0  0  0  0  0  0  0  0  0  0  0
    8.7327   -5.1874   15.6213 C   0  0  0  0  0  0  0  0  0  0  0  0
   11.4897   -5.0217   22.0927 O   0  0  0  0  0  0  0  0  0  0  0  0
    0.9218  -11.8863   22.9403 C   0  0  0  0  0  0  0  0  0  0  0  0
    4.8359   -9.4581   18.1393 O   0  0  0  0  0  0  0  0  0  0  0  0
   10.8934   -3.0784   17.7565 C   0  0  0  0  0  0  0  0  0  0  0  0
    7.3094   -7.9912   17.7596 S   0  0  0  0  0  0  0  0  0  0  0  0
    8.5686   -5.9335   18.4466 N   0  0  0  0  0  0  0  0  0  0  0  0
   10.5477   -4.9186   20.1305 C   0  0  0  0  0  0  0  0  0  0  0  0
    1.0694  -11.5129   20.3053 C   0  0  0  0  0  0  0  0  0  0  0  0
    2.7999  -11.2145   18.5641 C   0  0  0  0  0  0  0  0  0  0  0  0
   10.3388   -4.3309   17.5859 C   0  0  0  0  0  0  0  0  0  0  0  0
    9.7441   -5.6408   18.5289 C   0  0  0  0  0  0  0  0  0  0  0  0
    6.8180   -6.7557   15.0791 C   0  0  0  0  0  0  0  0  0  0  0  0
    6.2942   -8.4773   16.7757 C   0  0  0  0  0  0  0  0  0  0  0  0
    4.0515  -11.1615   18.6627 F   0  0  0  0  0  0  0  0  0  0  0  0
   11.0333   -4.0301   22.0112 C   0  0  0  0  0  0  0  0  0  0  0  0
    1.3626  -12.2189   21.8701 C   0  0  0  0  0  0  0  0  0  0  0  0
    4.7109   -9.2242   17.3739 N   0  0  0  0  0  0  0  0  0  0  0  0
   -0.8477  -10.7391   21.2015 C   0  0  0  0  0  0  0  0  0  0  0  0
    3.1612   -9.5883   17.0423 C   0  0  0  0  0  0  0  0  0  0  0  0
    9.6628   -4.6883   16.7337 N   0  0  0  0  0  0  0  0  0  0  0  0
   10.8283   -3.1345   19.1236 C   0  0  0  0  0  0  0  0  0  0  0  0
    1.5541  -10.2767   16.7943 C   0  0  0  0  0  0  0  0  0  0  0  0
   -0.3138  -11.0939   22.5124 C   0  0  0  0  0  0  0  0  0  0  0  0
    7.9051   -5.7926   15.9877 C   0  0  0  0  0  0  0  0  0  0  0  0
   -0.0733  -10.9603   20.5862 N   0  0  0  0  0  0  0  0  0  0  0  0
    1.2577  -12.0074   19.1934 C   0  0  0  0  0  0  0  0  0  0  0  0
    2.5182   -9.1495   16.8855 N   0  0  0  0  0  0  0  0  0  0  0  0
   10.8317   -4.1714   20.3887 C   0  0  0  0  0  0  0  0  0  0  0  0
    1.7487  -11.1472   17.8703 C   0  0  0  0  0  0  0  0  0  0  0  0
    5.9711   -7.5460   15.4025 C   0  0  0  0  0  0  0  0  0  0  0  0
    0.6715  -10.5555   16.8396 He  0  0  0  0  0  0  0  0  0  0  0  0
    8.2378   -6.6500   17.1398 He  0  0  0  0  0  0  0  0  0  0  0  0
  1  8  3  0
  1 17  4  0
  2  7  2  0
  2 26  4  0
  3 17  1  0
  3 19  1  0
  4  7  3  0
  4 18  4  0
  4 25  4  0
  4 28  4  0
  5  8  2  0
  5  9  1  0
  5 10  2  0
  5 11  2  0
  5 18  3  0
  5 19  3  0
  5 23  1  0
  5 25  3  0
  5 26  3  0
  6 12  4  0
  6 14  2  0
  6 15  4  0
  6 16  3  0
  6 23  4  0
  6 31  4  0
  6 32  3  0
  7  8  2  0
  7  9  2  0
  7 14  4  0
  7 15  4  0
  7 18  3  0
  7 19  3  0
  7 23  1  0
  7 24  2  0
  7 25  3  0
  7 28  1  0
  7 30  4  0
  8  9  4  0
  8 30  3  0
  8 31  2  0
  9 13  4  0
  9 15  2  0
  9 30  4  0
 10 16  2  0
 10 27  4  0
 10 28  1  0
 11 16  2  0
 11 18  4  0
 11 21  4  0
 11 22  4  0
 11 26  4  0
 11 31  4  0
 12 16  4  0
 12 22  4  0
 12 24  2  0
 12 26  4  0
 12 29  2  0
 13 15  1  0
 13 19  3  0
 14 18  3  0
 14 21  3  0
 14 26  4  0
 14 27  2  0
 14 28  3  0
 14 31  1  0
 14 32  4  0
 15 17  1  0
 15 19  4  0
 15 24  2  0
 15 28  3  0
 15 32  4  0
 16 18  4  0
 16 27  1  0
 16 31  2  0
 17 18  4  0
 17 20  2  0
 17 22  4  0
 17 29  1  0
 17 30  1  0
 18 29  1  0
 19 21  1  0
 20 24  1  0
 20 25  4  0
 21 25  4  0
 21 26  1  0
 21 29  2  0
 23 30  4  0
 24 28  3  0
 24 29  1  0
 25 26  4  0
 26 31  3  0
 28 31  1  0
M  END
$$$$

 Created by Python create_sdf_string function

 34 39  0  0  0  0  0  0  0  0999 V2000
   10.8755   -2.8193   22.3074 O   0  0  0  0  0  0  0  0  0  0  0  0
    8.6472   -5.1287   15.7590 C   0  0  0  0  0  0  0  0  0  0  0  0
   11.4104   -4.9717   22.3742 O   0  0  0  0  0  0  0  0  0  0  0  0
    0.8639  -10.6438   17.2280 N   0  0  0  0  0  0  0  0  0  0  0  0
    0.7934  -11.8299   22.7451 C   0  0  0  0  0  0  0  0  0  0  0  0
    5.2187   -9.6730   18.4995 O   0  0  0  0  0  0  0  0  0  0  0  0
   10.7841   -3.3049   18.0014 C   0  0  0  0  0  0  0  0  0  0  0  0
    7.0359   -7.7799   17.6484 C   0  0  0  0  0  0  0  0  0  0  0  0
    8.8538   -6.4116   18.1791 N   0  0  0  0  0  0  0  0  0  0  0  0
   10.2194   -5.2321   19.8838 C   0  0  0  0  0  0  0  0  0  0  0  0
    0.8927  -11.7472   20.3101 C   0  0  0  0  0  0  0  0  0  0  0  0
    3.0236  -10.6777   18.1155 C   0  0  0  0  0  0  0  0  0  0  0  0
   10.0229   -4.3551   17.6574 C   0  0  0  0  0  0  0  0  0  0  0  0
    9.7216   -5.3227   18.6284 C   0  0  0  0  0  0  0  0  0  0  0  0
    6.8918   -6.6512   15.2760 C   0  0  0  0  0  0  0  0  0  0  0  0
    5.9919   -8.1524   16.7967 C   0  0  0  0  0  0  0  0  0  0  0  0
    7.9376   -6.7842   17.2822 C   0  0  0  0  0  0  0  0  0  0  0  0
    3.9718  -11.1849   18.8599 F   0  0  0  0  0  0  0  0  0  0  0  0
   11.0826   -3.9181   21.7265 C   0  0  0  0  0  0  0  0  0  0  0  0
    1.4358  -12.1296   21.5668 C   0  0  0  0  0  0  0  0  0  0  0  0
    4.8677   -9.1746   17.3639 C   0  0  0  0  0  0  0  0  0  0  0  0
   -0.8568  -10.6372   21.5262 C   0  0  0  0  0  0  0  0  0  0  0  0
    3.4522   -9.6485   17.2131 C   0  0  0  0  0  0  0  0  0  0  0  0
    9.5345   -4.5146   16.4012 N   0  0  0  0  0  0  0  0  0  0  0  0
   11.0998   -3.0952   19.3887 C   0  0  0  0  0  0  0  0  0  0  0  0
    1.2896   -9.5989   16.4427 C   0  0  0  0  0  0  0  0  0  0  0  0
   -0.3421  -11.0952   22.7264 C   0  0  0  0  0  0  0  0  0  0  0  0
    7.8247   -6.1817   16.0708 C   0  0  0  0  0  0  0  0  0  0  0  0
   -0.2380  -10.9553   20.3340 N   0  0  0  0  0  0  0  0  0  0  0  0
    1.4488  -12.2001   19.0519 C   0  0  0  0  0  0  0  0  0  0  0  0
    2.4977   -9.1324   16.4336 N   0  0  0  0  0  0  0  0  0  0  0  0
   10.8247   -4.0496   20.2995 C   0  0  0  0  0  0  0  0  0  0  0  0
    1.7820  -11.1577   18.1054 C   0  0  0  0  0  0  0  0  0  0  0  0
    5.9813   -7.6067   15.6188 C   0  0  0  0  0  0  0  0  0  0  0  0
  1 19  2  0
  2 24  4  0
  2 28  4  0
  3 19  1  0
  4 26  4  0
  4 33  4  0
  5 20  4  0
  5 27  4  0
  6 18  4  0
  6 21  2  0
  7 13  4  0
  7 25  4  0
  8 16  4  0
  8 17  4  0
  9 14  4  0
  9 17  4  0
 10 14  4  0
 10 32  4  0
 11 20  4  0
 11 29  4  0
 11 30  1  0
 12 18  2  0
 12 23  4  0
 12 33  4  0
 13 14  4  0
 13 24  4  0
 15 28  4  0
 15 34  4  0
 16 21  1  0
 16 34  4  0
 17 28  4  0
 19 32  1  0
 21 23  1  0
 22 27  4  0
 22 29  4  0
 23 31  4  0
 25 32  4  0
 26 31  4  0
 30 33  1  0
M  END
$$$$

 Created by Python create_sdf_string function

 34 62  0  0  0  0  0  0  0  0999 V2000
   10.6197   -2.9079   22.2007 O   0  0  0  0  0  0  0  0  0  0  0  0
    8.2255   -5.1957   15.8535 C   0  0  0  0  0  0  0  0  0  0  0  0
   11.4195   -4.9370   22.0338 O   0  0  0  0  0  0  0  0  0  0  0  0
    0.8797  -11.7636   22.8828 C   0  0  0  0  0  0  0  0  0  0  0  0
    5.8201   -9.5912   18.6944 O   0  0  0  0  0  0  0  0  0  0  0  0
   10.7589   -3.5005   18.0584 C   0  0  0  0  0  0  0  0  0  0  0  0
    7.3711   -8.0367   18.1996 C   0  0  0  0  0  0  0  0  0  0  0  0
    8.6656   -7.1318   18.8779 N   0  0  0  0  0  0  0  0  0  0  0  0
   10.5051   -5.2128   19.8446 C   0  0  0  0  0  0  0  0  0  0  0  0
    0.8890  -11.7790   20.5115 C   0  0  0  0  0  0  0  0  0  0  0  0
    3.7447  -10.2568   18.0514 O   0  0  0  0  0  0  0  0  0  0  0  0
   10.2327   -4.4478   17.6849 C   0  0  0  0  0  0  0  0  0  0  0  0
    7.1764   -6.6445   15.0273 C   0  0  0  0  0  0  0  0  0  0  0  0
    5.1103   -8.4039   17.1937 P   0  0  0  0  0  0  0  0  0  0  0  0
    7.9192   -6.8853   17.0518 C   0  0  0  0  0  0  0  0  0  0  0  0
    3.7339  -11.4986   18.6839 Cl  0  0  0  0  0  0  0  0  0  0  0  0
   10.9817   -3.9286   21.4600 C   0  0  0  0  0  0  0  0  0  0  0  0
    5.1466   -9.2715   16.4963 C   0  0  0  0  0  0  0  0  0  0  0  0
   -1.0836  -10.5049   21.3697 C   0  0  0  0  0  0  0  0  0  0  0  0
    9.5830   -4.4856   16.3915 N   0  0  0  0  0  0  0  0  0  0  0  0
   11.2018   -3.0838   19.6430 C   0  0  0  0  0  0  0  0  0  0  0  0
    1.2787   -9.8950   16.6530 C   0  0  0  0  0  0  0  0  0  0  0  0
   -0.2774  -11.1580   22.8765 C   0  0  0  0  0  0  0  0  0  0  0  0
   -0.5486  -11.1857   20.3834 C   0  0  0  0  0  0  0  0  0  0  0  0
    1.1661  -12.0562   19.1379 C   0  0  0  0  0  0  0  0  0  0  0  0
    2.5507   -8.7681   16.5255 N   0  0  0  0  0  0  0  0  0  0  0  0
   10.6422   -3.9586   20.3318 C   0  0  0  0  0  0  0  0  0  0  0  0
    1.6404  -11.2034   17.8630 C   0  0  0  0  0  0  0  0  0  0  0  0
    6.1097   -7.5584   15.6398 C   0  0  0  0  0  0  0  0  0  0  0  0
    1.1812  -10.3973   17.3086 He  0  0  0  0  0  0  0  0  0  0  0  0
    9.3744   -5.5329   18.8192 He  0  0  0  0  0  0  0  0  0  0  0  0
    1.8870  -12.0090   21.3384 He  0  0  0  0  0  0  0  0  0  0  0  0
    3.6621   -9.4020   16.9947 He  0  0  0  0  0  0  0  0  0  0  0  0
    8.3319   -6.0131   16.5211 He  0  0  0  0  0  0  0  0  0  0  0  0
  1 14  2  0
  1 17  2  0
  1 29  3  0
  2 15  1  0
  2 20  4  0
  3 16  3  0
  3 17  1  0
  4  7  3  0
  4 14  4  0
  4 17  3  0
  4 23  3  0
  5 16  4  0
  5 18  2  0
  5 20  2  0
  5 21  3  0
  6  7  4  0
  6 12  4  0
  6 18  3  0
  6 21  3  0
  6 29  1  0
  7 14  3  0
  7 15  4  0
  7 25  2  0
  8 13  2  0
  8 15  2  0
  8 17  3  0
  9 10  1  0
  9 13  2  0
  9 27  4  0
 10 19  2  0
 10 24  4  0
 10 25  1  0
 10 27  2  0
 11 20  2  0
 11 21  4  0
 11 23  1  0
 11 27  1  0
 11 28  3  0
 12 18  1  0
 12 20  4  0
 12 22  3  0
 13 21  2  0
 13 26  4  0
 13 29  4  0
 14 18  1  0
 14 20  2  0
 14 29  4  0
 15 17  4  0
 15 22  1  0
 15 24  4  0
 16 27  3  0
 17 18  3  0
 17 22  3  0
 17 24  1  0
 17 27  1  0
 19 23  4  0
 21 26  1  0
 21 27  4  0
 22 26  4  0
 22 29  2  0
 25 28  1  0
 27 28  3  0
M  END
$$$$

 Created by Python create_sdf_string function

 34 38  0  0  0  0  0  0  0  0999 V2000
   10.6963   -2.8523   22.2443 O   0  0  0  0  0  0  0  0  0  0  0  0
    8.6722   -5.1831   15.8889 C   0  0  0  0  0  0  0  0  0  0  0  0
   11.3778   -4.8872   22.3182 O   0  0  0  0  0  0  0  0  0  0  0  0
    0.9708  -10.4001   17.3100 N   0  0  0  0  0  0  0  0  0  0  0  0
    0.9132  -11.7230   22.7005 C   0  0  0  0  0  0  0  0  0  0  0  0
    5.4208   -9.5234   18.4872 O   0  0  0  0  0  0  0  0  0  0  0  0
   10.7296   -3.3203   17.9688 C   0  0  0  0  0  0  0  0  0  0  0  0
    7.1044   -7.8821   17.7184 C   0  0  0  0  0  0  0  0  0  0  0  0
    8.9707   -6.6484   18.3414 N   0  0  0  0  0  0  0  0  0  0  0  0
   10.1678   -5.3389   19.8229 C   0  0  0  0  0  0  0  0  0  0  0  0
    0.8442  -11.7400   20.2717 C   0  0  0  0  0  0  0  0  0  0  0  0
    3.1310  -10.5704   18.0817 C   0  0  0  0  0  0  0  0  0  0  0  0
    9.9621   -4.4397   17.6364 C   0  0  0  0  0  0  0  0  0  0  0  0
    9.7263   -5.4335   18.5691 C   0  0  0  0  0  0  0  0  0  0  0  0
    6.9235   -6.5947   15.4015 C   0  0  0  0  0  0  0  0  0  0  0  0
    5.9487   -8.2644   16.9378 C   0  0  0  0  0  0  0  0  0  0  0  0
    7.9949   -6.8762   17.4472 C   0  0  0  0  0  0  0  0  0  0  0  0
    3.9200  -11.3476   18.8178 N   0  0  0  0  0  0  0  0  0  0  0  0
   10.9615   -3.9057   21.6669 C   0  0  0  0  0  0  0  0  0  0  0  0
    1.4679  -12.0238   21.4642 C   0  0  0  0  0  0  0  0  0  0  0  0
    4.9613   -9.1571   17.3744 C   0  0  0  0  0  0  0  0  0  0  0  0
   -0.9618  -10.8028   21.6457 C   0  0  0  0  0  0  0  0  0  0  0  0
    3.5310   -9.6038   17.2161 C   0  0  0  0  0  0  0  0  0  0  0  0
    9.4682   -4.3845   16.3662 N   0  0  0  0  0  0  0  0  0  0  0  0
   11.0580   -3.1289   19.3066 C   0  0  0  0  0  0  0  0  0  0  0  0
    1.3359   -9.4221   16.4272 C   0  0  0  0  0  0  0  0  0  0  0  0
   -0.2514  -11.0829   22.7819 C   0  0  0  0  0  0  0  0  0  0  0  0
    7.9365   -6.1979   16.2690 C   0  0  0  0  0  0  0  0  0  0  0  0
   -0.3905  -11.0955   20.3909 C   0  0  0  0  0  0  0  0  0  0  0  0
    1.4527  -12.0586   18.9787 C   0  0  0  0  0  0  0  0  0  0  0  0
    2.6339   -8.9867   16.3642 N   0  0  0  0  0  0  0  0  0  0  0  0
   10.7408   -4.1140   20.2272 C   0  0  0  0  0  0  0  0  0  0  0  0
    1.8854  -10.9798   18.1045 C   0  0  0  0  0  0  0  0  0  0  0  0
    6.0520   -7.5361   15.7091 C   0  0  0  0  0  0  0  0  0  0  0  0
  1 19  2  0
  2 24  4  0
  2 28  4  0
  3 19  1  0
  4 26  4  0
  4 33  4  0
  5 20  4  0
  5 27  4  0
  6 21  2  0
  7 13  4  0
  7 25  4  0
  8 16  4  0
  8 17  4  0
  9 14  4  0
  9 17  4  0
 10 14  4  0
 10 32  4  0
 11 20  4  0
 11 29  4  0
 11 30  1  0
 12 18  1  0
 12 23  4  0
 12 33  4  0
 13 14  4  0
 13 24  4  0
 15 28  4  0
 15 34  4  0
 16 21  1  0
 16 34  4  0
 17 28  4  0
 19 32  1  0
 21 23  1  0
 22 27  4  0
 22 29  4  0
 23 31  4  0
 25 32  4  0
 26 31  4  0
 30 33  1  0
M  END
$$$$

 Created by Python create_sdf_string function

 34 76  0  0  0  0  0  0  0  0999 V2000
   10.6881   -2.9402   22.3016 O   0  0  0  0  0  0  0  0  0  0  0  0
    8.5867   -5.2073   15.9371 C   0  0  0  0  0  0  0  0  0  0  0  0
   11.2491   -4.7827   22.4031 S   0  0  0  0  0  0  0  0  0  0  0  0
    1.1124  -11.3196   22.2276 C   0  0  0  0  0  0  0  0  0  0  0  0
   10.8163   -3.4261   17.9840 C   0  0  0  0  0  0  0  0  0  0  0  0
    8.2642   -6.4256   18.1121 N   0  0  0  0  0  0  0  0  0  0  0  0
   10.1692   -5.4815   19.5250 F   0  0  0  0  0  0  0  0  0  0  0  0
    1.1232  -11.7258   20.1985 C   0  0  0  0  0  0  0  0  0  0  0  0
    2.3175  -10.5827   18.3831 C   0  0  0  0  0  0  0  0  0  0  0  0
    9.8704   -4.2261   17.8851 C   0  0  0  0  0  0  0  0  0  0  0  0
    9.5702   -5.4792   18.6198 C   0  0  0  0  0  0  0  0  0  0  0  0
    6.9001   -6.7026   15.6413 C   0  0  0  0  0  0  0  0  0  0  0  0
    6.3348   -8.2925   16.4208 C   0  0  0  0  0  0  0  0  0  0  0  0
    7.7295   -6.9189   17.1312 C   0  0  0  0  0  0  0  0  0  0  0  0
    3.6788  -10.9035   18.6470 N   0  0  0  0  0  0  0  0  0  0  0  0
   10.9379   -4.0346   21.6146 C   0  0  0  0  0  0  0  0  0  0  0  0
    1.6781  -11.7449   21.7209 C   0  0  0  0  0  0  0  0  0  0  0  0
    4.6180   -9.6166   17.1383 C   0  0  0  0  0  0  0  0  0  0  0  0
    3.5628   -9.5636   17.2546 C   0  0  0  0  0  0  0  0  0  0  0  0
    9.4542   -4.2772   16.3070 N   0  0  0  0  0  0  0  0  0  0  0  0
   10.8945   -3.1628   19.5053 C   0  0  0  0  0  0  0  0  0  0  0  0
    0.9437  -10.2891   16.3738 C   0  0  0  0  0  0  0  0  0  0  0  0
   -0.1348  -10.6122   22.6329 C   0  0  0  0  0  0  0  0  0  0  0  0
    6.9614   -6.3018   15.9847 C   0  0  0  0  0  0  0  0  0  0  0  0
   -0.8473  -11.2219   20.4120 C   0  0  0  0  0  0  0  0  0  0  0  0
    1.5423  -12.0087   19.4197 C   0  0  0  0  0  0  0  0  0  0  0  0
    2.2992   -8.5579   16.1024 N   0  0  0  0  0  0  0  0  0  0  0  0
   10.9052   -4.3224   20.3953 C   0  0  0  0  0  0  0  0  0  0  0  0
    2.0806  -10.8991   18.2021 O   0  0  0  0  0  0  0  0  0  0  0  0
    5.9173   -7.4030   15.7147 C   0  0  0  0  0  0  0  0  0  0  0  0
    0.2333  -10.1710   17.7582 He  0  0  0  0  0  0  0  0  0  0  0  0
    4.8277   -9.1799   18.5769 He  0  0  0  0  0  0  0  0  0  0  0  0
    7.9358   -7.7879   17.3435 He  0  0  0  0  0  0  0  0  0  0  0  0
   -0.9668  -10.6550   21.9327 He  0  0  0  0  0  0  0  0  0  0  0  0
  1 12  4  0
  1 16  2  0
  1 25  1  0
  1 28  2  0
  2  3  3  0
  2 20  4  0
  2 24  4  0
  3 16  1  0
  4 15  4  0
  4 17  4  0
  4 19  3  0
  4 21  2  0
  4 22  2  0
  4 23  4  0
  5 10  4  0
  5 11  3  0
  5 21  4  0
  6 11  4  0
  6 14  4  0
  6 16  1  0
  6 19  3  0
  6 20  3  0
  6 23  2  0
  7  8  2  0
  7  9  4  0
  7 11  4  0
  7 22  4  0
  7 27  2  0
  7 28  4  0
  8 23  1  0
  8 25  4  0
  8 26  3  0
  8 29  4  0
  9 19  4  0
  9 29  4  0
 10 11  1  0
 10 14  2  0
 10 15  1  0
 10 16  3  0
 10 23  3  0
 10 24  3  0
 10 29  3  0
 11 25  4  0
 12 16  1  0
 12 20  1  0
 12 24  4  0
 12 28  4  0
 12 30  4  0
 13 14  2  0
 13 18  1  0
 13 25  3  0
 13 30  4  0
 14 23  1  0
 14 24  4  0
 14 26  3  0
 15 16  4  0
 15 21  3  0
 16 28  1  0
 18 19  2  0
 18 23  2  0
 18 26  4  0
 19 22  4  0
 19 26  3  0
 19 27  4  0
 20 27  1  0
 20 28  1  0
 21 23  4  0
 21 24  1  0
 21 28  4  0
 22 27  4  0
 24 29  2  0
 25 30  2  0
 26 27  3  0
 26 29  1  0
 27 28  1  0
 29 30  1  0
M  END
$$$$

 Created by Python create_sdf_string function

 34 39  0  0  0  0  0  0  0  0999 V2000
   10.7766   -2.8926   22.2609 O   0  0  0  0  0  0  0  0  0  0  0  0
    8.4117   -5.0334   15.8789 C   0  0  0  0  0  0  0  0  0  0  0  0
   11.2149   -5.0492   22.4451 O   0  0  0  0  0  0  0  0  0  0  0  0
    0.6258  -10.4329   17.3320 N   0  0  0  0  0  0  0  0  0  0  0  0
    0.9652  -11.4827   22.7039 C   0  0  0  0  0  0  0  0  0  0  0  0
    5.0785   -9.8420   18.2876 N   0  0  0  0  0  0  0  0  0  0  0  0
   10.6764   -3.3278   18.0033 C   0  0  0  0  0  0  0  0  0  0  0  0
    7.0534   -7.9047   17.5456 C   0  0  0  0  0  0  0  0  0  0  0  0
    8.8338   -6.4795   18.1532 N   0  0  0  0  0  0  0  0  0  0  0  0
   10.0630   -5.2982   19.8496 C   0  0  0  0  0  0  0  0  0  0  0  0
    0.7996  -11.6354   20.3570 C   0  0  0  0  0  0  0  0  0  0  0  0
    2.9194  -10.3751   18.0450 C   0  0  0  0  0  0  0  0  0  0  0  0
    9.8825   -4.3732   17.6497 C   0  0  0  0  0  0  0  0  0  0  0  0
    9.5839   -5.3903   18.5347 C   0  0  0  0  0  0  0  0  0  0  0  0
    6.7081   -6.5444   15.2656 C   0  0  0  0  0  0  0  0  0  0  0  0
    5.9772   -8.2093   16.7378 C   0  0  0  0  0  0  0  0  0  0  0  0
    7.9078   -6.8539   17.2954 C   0  0  0  0  0  0  0  0  0  0  0  0
    4.0559  -10.6272   18.7869 N   0  0  0  0  0  0  0  0  0  0  0  0
   10.9187   -3.9938   21.7128 C   0  0  0  0  0  0  0  0  0  0  0  0
    1.5047  -11.8436   21.4744 C   0  0  0  0  0  0  0  0  0  0  0  0
    4.7305   -9.2516   17.3103 C   0  0  0  0  0  0  0  0  0  0  0  0
   -0.9848  -10.7268   21.7015 C   0  0  0  0  0  0  0  0  0  0  0  0
    3.2893   -9.5625   17.0385 C   0  0  0  0  0  0  0  0  0  0  0  0
    9.3563   -4.3509   16.4031 N   0  0  0  0  0  0  0  0  0  0  0  0
   11.0502   -3.2126   19.3787 C   0  0  0  0  0  0  0  0  0  0  0  0
    0.9903   -9.5501   16.4122 C   0  0  0  0  0  0  0  0  0  0  0  0
   -0.2161  -10.8838   22.7957 C   0  0  0  0  0  0  0  0  0  0  0  0
    7.6688   -6.1516   16.1052 C   0  0  0  0  0  0  0  0  0  0  0  0
   -0.4925  -11.0904   20.4756 C   0  0  0  0  0  0  0  0  0  0  0  0
    1.3997  -11.9367   19.0435 C   0  0  0  0  0  0  0  0  0  0  0  0
    2.2936   -9.1466   16.2025 N   0  0  0  0  0  0  0  0  0  0  0  0
   10.7021   -4.1736   20.2727 C   0  0  0  0  0  0  0  0  0  0  0  0
    1.6495  -10.9174   18.1551 N   0  0  0  0  0  0  0  0  0  0  0  0
    5.9015   -7.5648   15.6043 C   0  0  0  0  0  0  0  0  0  0  0  0
  1 19  2  0
  2 24  4  0
  2 28  4  0
  3 19  1  0
  4 26  4  0
  4 33  4  0
  5 20  4  0
  5 27  4  0
  6 18  4  0
  6 21  2  0
  7 13  4  0
  7 25  4  0
  8 16  4  0
  8 17  4  0
  9 14  4  0
  9 17  4  0
 10 14  4  0
 10 32  4  0
 11 20  4  0
 11 29  4  0
 11 30  1  0
 12 18  4  0
 12 23  4  0
 12 33  4  0
 13 14  4  0
 13 24  4  0
 15 28  4  0
 15 34  4  0
 16 21  1  0
 16 34  4  0
 17 28  4  0
 19 32  1  0
 21 23  1  0
 22 27  4  0
 22 29  4  0
 23 31  4  0
 25 32  4  0
 26 31  4  0
 30 33  1  0
M  END
$$$$

 Created by Python create_sdf_string function

 34 60  0  0  0  0  0  0  0  0999 V2000
   10.6340   -3.0592   22.2383 O   0  0  0  0  0  0  0  0  0  0  0  0
    8.3396   -4.7370   15.7377 C   0  0  0  0  0  0  0  0  0  0  0  0
   11.1364   -4.9185   22.2999 C   0  0  0  0  0  0  0  0  0  0  0  0
    0.2481  -10.2496   17.2828 F   0  0  0  0  0  0  0  0  0  0  0  0
    1.0744  -11.5340   22.6860 C   0  0  0  0  0  0  0  0  0  0  0  0
   10.8057   -3.2525   18.1131 C   0  0  0  0  0  0  0  0  0  0  0  0
    6.8457   -7.3719   17.7018 C   0  0  0  0  0  0  0  0  0  0  0  0
    8.7533   -6.5191   18.4173 N   0  0  0  0  0  0  0  0  0  0  0  0
   10.1595   -5.3069   19.9335 C   0  0  0  0  0  0  0  0  0  0  0  0
    0.6213  -11.5861   20.5218 C   0  0  0  0  0  0  0  0  0  0  0  0
    2.9465  -10.7986   17.5708 O   0  0  0  0  0  0  0  0  0  0  0  0
   10.0189   -4.4156   17.6429 C   0  0  0  0  0  0  0  0  0  0  0  0
    9.5500   -5.2536   18.6578 C   0  0  0  0  0  0  0  0  0  0  0  0
    6.8632   -5.7279   14.9487 C   0  0  0  0  0  0  0  0  0  0  0  0
    8.0129   -6.9635   17.5162 C   0  0  0  0  0  0  0  0  0  0  0  0
    4.0835  -10.4629   19.2491 N   0  0  0  0  0  0  0  0  0  0  0  0
   -0.8807  -10.4821   21.7899 C   0  0  0  0  0  0  0  0  0  0  0  0
    3.4019   -9.5491   16.8012 C   0  0  0  0  0  0  0  0  0  0  0  0
    9.3367   -4.3719   16.4702 N   0  0  0  0  0  0  0  0  0  0  0  0
   10.9397   -3.1191   19.1476 C   0  0  0  0  0  0  0  0  0  0  0  0
    0.9375   -9.9182   15.7942 F   0  0  0  0  0  0  0  0  0  0  0  0
    8.0023   -6.5258   16.3694 C   0  0  0  0  0  0  0  0  0  0  0  0
   -0.5136  -11.1838   20.2257 C   0  0  0  0  0  0  0  0  0  0  0  0
    1.5430  -11.8959   18.9985 C   0  0  0  0  0  0  0  0  0  0  0  0
    1.8263   -9.0760   16.5260 N   0  0  0  0  0  0  0  0  0  0  0  0
   10.4507   -4.0832   19.9826 C   0  0  0  0  0  0  0  0  0  0  0  0
    1.4725  -10.9515   18.1209 N   0  0  0  0  0  0  0  0  0  0  0  0
    6.1957   -7.9031   15.4610 C   0  0  0  0  0  0  0  0  0  0  0  0
    5.0383   -9.7709   17.8437 He  0  0  0  0  0  0  0  0  0  0  0  0
    6.4410   -8.3797   16.6588 He  0  0  0  0  0  0  0  0  0  0  0  0
   10.7464   -3.7724   21.4985 He  0  0  0  0  0  0  0  0  0  0  0  0
    1.7241  -11.6726   21.5985 He  0  0  0  0  0  0  0  0  0  0  0  0
    4.7016   -8.8519   17.3033 He  0  0  0  0  0  0  0  0  0  0  0  0
   -0.0591  -10.7944   22.6877 He  0  0  0  0  0  0  0  0  0  0  0  0
  1 16  3  0
  1 21  1  0
  2 14  1  0
  2 19  4  0
  2 21  1  0
  2 22  3  0
  2 23  4  0
  3  4  3  0
  3  7  1  0
  3  9  3  0
  3 12  4  0
  3 14  2  0
  4 23  3  0
  4 27  4  0
  5  7  2  0
  5 11  4  0
  6 12  4  0
  6 17  2  0
  6 18  2  0
  6 20  4  0
  7 24  2  0
  7 25  2  0
  7 27  3  0
  8 12  4  0
  8 13  1  0
  8 15  4  0
  8 16  4  0
  8 17  4  0
  8 19  4  0
  8 25  1  0
  9 11  4  0
  9 13  4  0
  9 21  2  0
  9 26  4  0
 10 13  2  0
 10 21  3  0
 10 23  4  0
 11 17  1  0
 11 18  4  0
 12 13  1  0
 12 19  4  0
 13 26  3  0
 14 18  2  0
 14 20  3  0
 14 21  1  0
 14 27  2  0
 14 28  4  0
 15 22  4  0
 16 22  1  0
 17 18  1  0
 17 20  2  0
 18 22  2  0
 18 25  3  0
 19 21  2  0
 20 26  4  0
 21 25  4  0
 21 28  3  0
 22 26  1  0
 24 27  1  0
 25 26  3  0
M  END
$$$$

 Created by Python create_sdf_string function

 34 39  0  0  0  0  0  0  0  0999 V2000
   10.6743   -2.7962   22.1510 O   0  0  0  0  0  0  0  0  0  0  0  0
    8.4979   -5.0734   15.7870 C   0  0  0  0  0  0  0  0  0  0  0  0
   11.1376   -4.9714   22.3750 O   0  0  0  0  0  0  0  0  0  0  0  0
    0.6203  -10.5534   17.1707 N   0  0  0  0  0  0  0  0  0  0  0  0
    1.0406  -11.4793   22.6822 C   0  0  0  0  0  0  0  0  0  0  0  0
    4.9735   -9.7734   18.1919 N   0  0  0  0  0  0  0  0  0  0  0  0
   10.6415   -3.2888   17.9448 C   0  0  0  0  0  0  0  0  0  0  0  0
    6.9595   -7.8226   17.6222 C   0  0  0  0  0  0  0  0  0  0  0  0
    8.8128   -6.4987   18.2639 N   0  0  0  0  0  0  0  0  0  0  0  0
   10.0640   -5.2503   19.8343 C   0  0  0  0  0  0  0  0  0  0  0  0
    0.8421  -11.5343   20.3034 C   0  0  0  0  0  0  0  0  0  0  0  0
    2.8839  -10.2876   17.9378 C   0  0  0  0  0  0  0  0  0  0  0  0
    9.8437   -4.3732   17.6082 C   0  0  0  0  0  0  0  0  0  0  0  0
    9.5764   -5.3921   18.5605 C   0  0  0  0  0  0  0  0  0  0  0  0
    6.9491   -6.6561   15.2392 C   0  0  0  0  0  0  0  0  0  0  0  0
    5.9800   -8.1076   16.7557 C   0  0  0  0  0  0  0  0  0  0  0  0
    7.8638   -6.7669   17.3671 C   0  0  0  0  0  0  0  0  0  0  0  0
    3.9890  -10.5340   18.6543 N   0  0  0  0  0  0  0  0  0  0  0  0
   10.8328   -3.8633   21.6178 C   0  0  0  0  0  0  0  0  0  0  0  0
    1.5547  -11.7971   21.4372 C   0  0  0  0  0  0  0  0  0  0  0  0
    4.7834   -9.0750   17.2670 C   0  0  0  0  0  0  0  0  0  0  0  0
   -0.9506  -10.6800   21.6866 C   0  0  0  0  0  0  0  0  0  0  0  0
    3.2506   -9.4667   16.9427 C   0  0  0  0  0  0  0  0  0  0  0  0
    9.3406   -4.3499   16.3843 N   0  0  0  0  0  0  0  0  0  0  0  0
   10.9759   -3.1099   19.2865 C   0  0  0  0  0  0  0  0  0  0  0  0
    0.9426   -9.6238   16.2264 C   0  0  0  0  0  0  0  0  0  0  0  0
   -0.1679  -10.8865   22.7773 C   0  0  0  0  0  0  0  0  0  0  0  0
    7.7453   -6.1503   16.1440 C   0  0  0  0  0  0  0  0  0  0  0  0
   -0.4629  -10.9601   20.4408 C   0  0  0  0  0  0  0  0  0  0  0  0
    1.4284  -11.9097   18.9744 C   0  0  0  0  0  0  0  0  0  0  0  0
    2.2548   -9.1527   16.0953 N   0  0  0  0  0  0  0  0  0  0  0  0
   10.6350   -4.0615   20.2205 C   0  0  0  0  0  0  0  0  0  0  0  0
    1.6214  -10.9037   18.0328 N   0  0  0  0  0  0  0  0  0  0  0  0
    5.9918   -7.6034   15.5836 C   0  0  0  0  0  0  0  0  0  0  0  0
  1 19  2  0
  2 24  4  0
  2 28  4  0
  3 19  1  0
  4 26  4  0
  4 33  4  0
  5 20  4  0
  5 27  4  0
  6 18  4  0
  6 21  4  0
  7 13  4  0
  7 25  4  0
  8 16  4  0
  8 17  4  0
  9 14  4  0
  9 17  4  0
 10 14  4  0
 10 32  4  0
 11 20  4  0
 11 29  4  0
 11 30  1  0
 12 18  4  0
 12 23  4  0
 12 33  4  0
 13 14  4  0
 13 24  4  0
 15 28  4  0
 15 34  4  0
 16 21  1  0
 16 34  4  0
 17 28  4  0
 19 32  1  0
 21 23  4  0
 22 27  4  0
 22 29  4  0
 23 31  4  0
 25 32  4  0
 26 31  4  0
 30 33  1  0
M  END
$$$$

 Created by Python create_sdf_string function

 34 74  0  0  0  0  0  0  0  0999 V2000
   11.0396   -2.8904   22.1726 O   0  0  0  0  0  0  0  0  0  0  0  0
    8.0530   -5.0975   15.8321 C   0  0  0  0  0  0  0  0  0  0  0  0
   11.1028   -5.1717   22.1866 Cl  0  0  0  0  0  0  0  0  0  0  0  0
    0.5490  -10.6955   18.3107 N   0  0  0  0  0  0  0  0  0  0  0  0
    4.5339  -10.4713   18.2091 O   0  0  0  0  0  0  0  0  0  0  0  0
   10.8131   -3.0530   17.7142 C   0  0  0  0  0  0  0  0  0  0  0  0
    7.0737   -7.6208   18.3477 C   0  0  0  0  0  0  0  0  0  0  0  0
    9.1375   -6.9623   18.2640 N   0  0  0  0  0  0  0  0  0  0  0  0
    9.9445   -5.3466   19.7380 C   0  0  0  0  0  0  0  0  0  0  0  0
    0.3955  -11.5080   20.2704 C   0  0  0  0  0  0  0  0  0  0  0  0
    3.0918   -9.8109   17.5479 C   0  0  0  0  0  0  0  0  0  0  0  0
    9.5341   -5.3192   18.6900 F   0  0  0  0  0  0  0  0  0  0  0  0
    6.6041   -6.3432   15.0337 N   0  0  0  0  0  0  0  0  0  0  0  0
    6.2713   -8.3327   17.2344 C   0  0  0  0  0  0  0  0  0  0  0  0
    7.6268   -6.6597   17.2685 C   0  0  0  0  0  0  0  0  0  0  0  0
    4.3259  -10.5905   18.3440 F   0  0  0  0  0  0  0  0  0  0  0  0
    1.5093  -11.8918   21.8732 C   0  0  0  0  0  0  0  0  0  0  0  0
    4.2652   -9.1835   16.6186 C   0  0  0  0  0  0  0  0  0  0  0  0
    3.2008   -9.3316   17.0688 C   0  0  0  0  0  0  0  0  0  0  0  0
    9.4647   -4.5061   16.4136 N   0  0  0  0  0  0  0  0  0  0  0  0
   10.9413   -3.3534   19.1706 C   0  0  0  0  0  0  0  0  0  0  0  0
    0.8849   -9.7737   16.4222 O   0  0  0  0  0  0  0  0  0  0  0  0
   -0.1785  -10.9704   22.8984 C   0  0  0  0  0  0  0  0  0  0  0  0
    7.6653   -6.2125   16.2845 C   0  0  0  0  0  0  0  0  0  0  0  0
   -0.7748  -10.6345   20.5721 C   0  0  0  0  0  0  0  0  0  0  0  0
    1.7260  -11.7271   19.0041 C   0  0  0  0  0  0  0  0  0  0  0  0
    2.6032   -9.0794   16.2168 N   0  0  0  0  0  0  0  0  0  0  0  0
   10.9913   -3.5908   20.2650 C   0  0  0  0  0  0  0  0  0  0  0  0
    1.2885  -10.7013   18.2171 N   0  0  0  0  0  0  0  0  0  0  0  0
    5.8657   -7.6982   15.5916 C   0  0  0  0  0  0  0  0  0  0  0  0
    1.0106  -11.5940   22.8451 He  0  0  0  0  0  0  0  0  0  0  0  0
    9.9397   -4.2579   17.4559 He  0  0  0  0  0  0  0  0  0  0  0  0
   10.8185   -3.9467   21.9355 He  0  0  0  0  0  0  0  0  0  0  0  0
   -1.1495  -10.7148   21.7883 He  0  0  0  0  0  0  0  0  0  0  0  0
  1 11  1  0
  1 20  3  0
  2  8  4  0
  2 14  2  0
  2 24  4  0
  3 19  2  0
  3 24  1  0
  4 23  4  0
  4 26  3  0
  4 29  4  0
  4 30  1  0
  5 10  1  0
  5 16  4  0
  5 18  4  0
  5 23  3  0
  5 27  1  0
  6 11  2  0
  6 16  2  0
  6 21  4  0
  6 26  1  0
  7 12  4  0
  7 22  2  0
  8  9  4  0
  8 15  4  0
  8 27  1  0
  9 12  4  0
  9 14  1  0
  9 18  4  0
  9 21  2  0
  9 28  4  0
 10 11  3  0
 10 14  2  0
 10 15  2  0
 10 17  4  0
 10 18  4  0
 10 24  2  0
 10 25  4  0
 10 26  1  0
 11 16  1  0
 11 17  2  0
 11 18  3  0
 11 19  4  0
 11 23  2  0
 11 26  1  0
 11 28  4  0
 11 29  4  0
 11 30  4  0
 13 24  4  0
 13 25  1  0
 14 16  3  0
 14 18  1  0
 14 22  1  0
 14 23  4  0
 14 30  4  0
 15 16  3  0
 15 21  3  0
 15 24  2  0
 15 27  1  0
 16 27  1  0
 16 30  1  0
 17 24  3  0
 17 27  1  0
 18 19  1  0
 18 20  1  0
 18 24  2  0
 19 22  2  0
 19 26  1  0
 19 27  4  0
 21 28  1  0
 21 30  1  0
 24 29  4  0
 25 30  3  0
 26 29  1  0
 28 29  1  0
M  END
$$$$

 Created by Python create_sdf_string function

 34 39  0  0  0  0  0  0  0  0999 V2000
   11.0622   -2.7686   22.1994 O   0  0  0  0  0  0  0  0  0  0  0  0
    8.3960   -5.1604   15.8812 C   0  0  0  0  0  0  0  0  0  0  0  0
   11.0698   -5.0057   22.3629 O   0  0  0  0  0  0  0  0  0  0  0  0
    0.5914  -10.3587   17.4311 N   0  0  0  0  0  0  0  0  0  0  0  0
    0.8288  -11.6260   22.8437 C   0  0  0  0  0  0  0  0  0  0  0  0
    5.1091  -10.1103   18.0515 N   0  0  0  0  0  0  0  0  0  0  0  0
   10.6718   -3.3175   17.8979 C   0  0  0  0  0  0  0  0  0  0  0  0
    6.8282   -7.9015   17.6448 C   0  0  0  0  0  0  0  0  0  0  0  0
    8.7347   -6.4856   18.1900 N   0  0  0  0  0  0  0  0  0  0  0  0
   10.1714   -5.2740   19.7850 C   0  0  0  0  0  0  0  0  0  0  0  0
    0.7449  -11.4587   20.4573 C   0  0  0  0  0  0  0  0  0  0  0  0
    2.8922  -10.3272   17.9114 C   0  0  0  0  0  0  0  0  0  0  0  0
    9.9327   -4.3678   17.5790 C   0  0  0  0  0  0  0  0  0  0  0  0
    9.6375   -5.3404   18.4957 C   0  0  0  0  0  0  0  0  0  0  0  0
    6.6992   -6.5338   15.2907 C   0  0  0  0  0  0  0  0  0  0  0  0
    5.7806   -8.1763   16.7805 C   0  0  0  0  0  0  0  0  0  0  0  0
    7.7518   -6.8572   17.3537 C   0  0  0  0  0  0  0  0  0  0  0  0
    4.0692  -10.7293   18.5088 N   0  0  0  0  0  0  0  0  0  0  0  0
   10.9917   -3.9124   21.6500 C   0  0  0  0  0  0  0  0  0  0  0  0
    1.3824  -11.8338   21.6179 C   0  0  0  0  0  0  0  0  0  0  0  0
    4.6871   -9.1803   17.1855 C   0  0  0  0  0  0  0  0  0  0  0  0
   -1.0651  -10.6548   21.8785 C   0  0  0  0  0  0  0  0  0  0  0  0
    3.2339   -9.4720   17.0073 C   0  0  0  0  0  0  0  0  0  0  0  0
    9.3323   -4.3549   16.3444 N   0  0  0  0  0  0  0  0  0  0  0  0
   10.9832   -3.0697   19.2660 C   0  0  0  0  0  0  0  0  0  0  0  0
    0.9287   -9.4820   16.4160 C   0  0  0  0  0  0  0  0  0  0  0  0
   -0.3561  -11.0111   22.9717 C   0  0  0  0  0  0  0  0  0  0  0  0
    7.6150   -6.1935   16.1652 C   0  0  0  0  0  0  0  0  0  0  0  0
   -0.5405  -10.8635   20.6479 C   0  0  0  0  0  0  0  0  0  0  0  0
    1.3540  -11.7186   19.1165 C   0  0  0  0  0  0  0  0  0  0  0  0
    2.2820   -9.0199   16.1980 N   0  0  0  0  0  0  0  0  0  0  0  0
   10.7250   -4.0637   20.1950 C   0  0  0  0  0  0  0  0  0  0  0  0
    1.5725  -10.7676   18.1876 N   0  0  0  0  0  0  0  0  0  0  0  0
    5.8096   -7.5143   15.6295 C   0  0  0  0  0  0  0  0  0  0  0  0
  1 19  2  0
  2 24  4  0
  2 28  4  0
  3 19  1  0
  4 26  4  0
  4 33  4  0
  5 20  4  0
  5 27  4  0
  6 18  4  0
  6 21  4  0
  7 13  4  0
  7 25  4  0
  8 16  4  0
  8 17  4  0
  9 14  4  0
  9 17  4  0
 10 14  4  0
 10 32  4  0
 11 20  4  0
 11 29  4  0
 11 30  1  0
 12 18  4  0
 12 23  4  0
 12 33  4  0
 13 14  4  0
 13 24  4  0
 15 28  4  0
 15 34  4  0
 16 21  1  0
 16 34  4  0
 17 28  4  0
 19 32  1  0
 21 23  4  0
 22 27  4  0
 22 29  4  0
 23 31  4  0
 25 32  4  0
 26 31  4  0
 30 33  1  0
M  END
$$$$

 Created by Python create_sdf_string function

 34 77  0  0  0  0  0  0  0  0999 V2000
   10.8727   -2.7027   22.4054 O   0  0  0  0  0  0  0  0  0  0  0  0
    8.3102   -5.4224   16.0594 C   0  0  0  0  0  0  0  0  0  0  0  0
   10.8768   -4.8388   22.2338 O   0  0  0  0  0  0  0  0  0  0  0  0
    0.8989  -10.3003   17.3763 N   0  0  0  0  0  0  0  0  0  0  0  0
    0.7312  -11.4979   22.9062 C   0  0  0  0  0  0  0  0  0  0  0  0
    4.8739  -10.1800   17.4913 C   0  0  0  0  0  0  0  0  0  0  0  0
   10.7749   -3.0139   17.6890 C   0  0  0  0  0  0  0  0  0  0  0  0
    6.7324   -8.2121   17.5125 O   0  0  0  0  0  0  0  0  0  0  0  0
    0.7662  -11.4925   20.3620 C   0  0  0  0  0  0  0  0  0  0  0  0
    9.7331   -4.2622   17.5065 C   0  0  0  0  0  0  0  0  0  0  0  0
    9.5239   -5.3787   18.3964 C   0  0  0  0  0  0  0  0  0  0  0  0
    6.9986   -6.6698   15.3897 C   0  0  0  0  0  0  0  0  0  0  0  0
    6.1482   -8.0793   16.6382 O   0  0  0  0  0  0  0  0  0  0  0  0
    7.4427   -6.8295   17.3029 C   0  0  0  0  0  0  0  0  0  0  0  0
    3.7968  -10.4132   18.2235 N   0  0  0  0  0  0  0  0  0  0  0  0
   11.1357   -3.7627   21.8621 C   0  0  0  0  0  0  0  0  0  0  0  0
    1.1670  -11.6449   21.8130 C   0  0  0  0  0  0  0  0  0  0  0  0
    4.4044   -9.4562   17.5630 C   0  0  0  0  0  0  0  0  0  0  0  0
   -0.9996  -10.4765   21.8112 C   0  0  0  0  0  0  0  0  0  0  0  0
    3.5201   -9.7079   16.9027 C   0  0  0  0  0  0  0  0  0  0  0  0
    9.3191   -4.4107   16.3519 N   0  0  0  0  0  0  0  0  0  0  0  0
   10.8759   -3.1272   19.3521 C   0  0  0  0  0  0  0  0  0  0  0  0
    1.2752   -9.1037   16.5621 C   0  0  0  0  0  0  0  0  0  0  0  0
   -0.6157  -10.8825   23.1246 C   0  0  0  0  0  0  0  0  0  0  0  0
    8.1172   -5.4259   16.4704 O   0  0  0  0  0  0  0  0  0  0  0  0
   -0.7135  -10.8493   20.6286 C   0  0  0  0  0  0  0  0  0  0  0  0
    1.1322  -11.6152   19.2086 C   0  0  0  0  0  0  0  0  0  0  0  0
    2.5815   -9.2901   16.7593 N   0  0  0  0  0  0  0  0  0  0  0  0
   10.8173   -4.0188   20.3842 C   0  0  0  0  0  0  0  0  0  0  0  0
    1.5532  -10.6699   18.5686 N   0  0  0  0  0  0  0  0  0  0  0  0
    5.7214   -7.6257   15.3250 N   0  0  0  0  0  0  0  0  0  0  0  0
    9.0702   -6.0596   18.4567 He  0  0  0  0  0  0  0  0  0  0  0  0
   10.1786   -5.0726   19.6441 He  0  0  0  0  0  0  0  0  0  0  0  0
    3.2152  -10.2914   18.3415 He  0  0  0  0  0  0  0  0  0  0  0  0
  1  3  2  0
  1  6  1  0
  1 15  3  0
  1 16  2  0
  1 22  2  0
  1 30  2  0
  2  5  3  0
  2 15  1  0
  2 21  4  0
  2 25  4  0
  2 29  3  0
  3 16  3  0
  4  7  3  0
  4 12  4  0
  4 19  2  0
  4 23  4  0
  4 30  4  0
  5 17  4  0
  5 18  4  0
  5 19  3  0
  5 23  3  0
  6 13  4  0
  6 15  4  0
  6 20  4  0
  6 21  3  0
  6 31  4  0
  7  8  4  0
  7 10  4  0
  7 18  3  0
  7 22  4  0
  7 24  3  0
  8 13  4  0
  8 14  4  0
  8 15  1  0
  8 16  3  0
  8 21  2  0
  8 22  3  0
  8 24  3  0
  9 17  4  0
  9 26  4  0
  9 27  1  0
 10 11  4  0
 10 21  4  0
 10 23  4  0
 10 30  2  0
 11 15  3  0
 11 17  3  0
 11 19  4  0
 11 24  4  0
 12 17  3  0
 12 20  2  0
 12 25  4  0
 12 27  1  0
 12 31  4  0
 13 14  4  0
 13 31  4  0
 14 19  3  0
 14 20  4  0
 15 21  3  0
 15 29  4  0
 15 30  2  0
 16 29  1  0
 18 20  4  0
 18 27  2  0
 19 22  2  0
 19 24  4  0
 19 26  4  0
 20 25  1  0
 20 28  4  0
 21 23  1  0
 21 24  3  0
 23 26  1  0
 23 28  4  0
 24 28  2  0
 25 28  1  0
 27 30  1  0
 27 31  1  0
M  END
$$$$

 Created by Python create_sdf_string function

 34 39  0  0  0  0  0  0  0  0999 V2000
   10.9783   -2.6760   22.1852 O   0  0  0  0  0  0  0  0  0  0  0  0
    8.4803   -5.1877   16.0435 C   0  0  0  0  0  0  0  0  0  0  0  0
   10.9777   -4.9060   22.3819 O   0  0  0  0  0  0  0  0  0  0  0  0
    0.6785  -10.1819   17.5562 N   0  0  0  0  0  0  0  0  0  0  0  0
    0.6943  -11.5084   22.8783 C   0  0  0  0  0  0  0  0  0  0  0  0
    5.0850  -10.2218   18.0567 C   0  0  0  0  0  0  0  0  0  0  0  0
   10.7427   -3.1620   17.9413 C   0  0  0  0  0  0  0  0  0  0  0  0
    6.8170   -7.9161   17.5627 C   0  0  0  0  0  0  0  0  0  0  0  0
    8.7227   -6.3555   18.2486 N   0  0  0  0  0  0  0  0  0  0  0  0
   10.0927   -5.1969   19.7673 C   0  0  0  0  0  0  0  0  0  0  0  0
    0.6342  -11.4220   20.4691 C   0  0  0  0  0  0  0  0  0  0  0  0
    2.9808  -10.4180   18.0346 C   0  0  0  0  0  0  0  0  0  0  0  0
    9.9701   -4.2562   17.5908 C   0  0  0  0  0  0  0  0  0  0  0  0
    9.6296   -5.2282   18.5494 C   0  0  0  0  0  0  0  0  0  0  0  0
    6.7555   -6.5507   15.2773 C   0  0  0  0  0  0  0  0  0  0  0  0
    5.7878   -8.2619   16.6864 C   0  0  0  0  0  0  0  0  0  0  0  0
    7.8059   -6.8046   17.3778 C   0  0  0  0  0  0  0  0  0  0  0  0
    4.0724  -10.8506   18.5589 N   0  0  0  0  0  0  0  0  0  0  0  0
   10.9126   -3.8163   21.6749 C   0  0  0  0  0  0  0  0  0  0  0  0
    1.2499  -11.7678   21.6646 C   0  0  0  0  0  0  0  0  0  0  0  0
    4.7648   -9.2734   17.1512 C   0  0  0  0  0  0  0  0  0  0  0  0
   -1.1983  -10.5720   21.8188 C   0  0  0  0  0  0  0  0  0  0  0  0
    3.3543   -9.4543   17.0530 C   0  0  0  0  0  0  0  0  0  0  0  0
    9.4311   -4.3302   16.4012 N   0  0  0  0  0  0  0  0  0  0  0  0
   11.0510   -2.9912   19.3182 C   0  0  0  0  0  0  0  0  0  0  0  0
    1.1409   -9.3702   16.5792 C   0  0  0  0  0  0  0  0  0  0  0  0
   -0.5108  -10.8956   22.9632 C   0  0  0  0  0  0  0  0  0  0  0  0
    7.7435   -6.1817   16.2141 C   0  0  0  0  0  0  0  0  0  0  0  0
   -0.6145  -10.7788   20.6186 C   0  0  0  0  0  0  0  0  0  0  0  0
    1.2192  -11.7753   19.1531 C   0  0  0  0  0  0  0  0  0  0  0  0
    2.3948   -8.9284   16.3929 N   0  0  0  0  0  0  0  0  0  0  0  0
   10.7106   -3.9892   20.2188 C   0  0  0  0  0  0  0  0  0  0  0  0
    1.6500  -10.7707   18.2703 N   0  0  0  0  0  0  0  0  0  0  0  0
    5.8201   -7.5661   15.5556 C   0  0  0  0  0  0  0  0  0  0  0  0
  1 19  2  0
  2 24  4  0
  2 28  4  0
  3 19  1  0
  4 26  4  0
  4 33  4  0
  5 20  4  0
  5 27  4  0
  6 18  4  0
  6 21  4  0
  7 13  4  0
  7 25  4  0
  8 16  4  0
  8 17  4  0
  9 14  4  0
  9 17  4  0
 10 14  4  0
 10 32  4  0
 11 20  4  0
 11 29  4  0
 11 30  1  0
 12 18  4  0
 12 23  4  0
 12 33  4  0
 13 14  4  0
 13 24  4  0
 15 28  4  0
 15 34  4  0
 16 21  1  0
 16 34  4  0
 17 28  4  0
 19 32  1  0
 21 23  4  0
 22 27  4  0
 22 29  4  0
 23 31  4  0
 25 32  4  0
 26 31  4  0
 30 33  1  0
M  END
$$$$

 Created by Python create_sdf_string function

 34 65  0  0  0  0  0  0  0  0999 V2000
    8.3093   -5.2171   16.0580 C   0  0  0  0  0  0  0  0  0  0  0  0
   11.1372   -4.9095   22.1269 O   0  0  0  0  0  0  0  0  0  0  0  0
    0.7309  -11.2204   22.9164 C   0  0  0  0  0  0  0  0  0  0  0  0
    5.4861  -10.6590   18.1806 C   0  0  0  0  0  0  0  0  0  0  0  0
   10.5803   -3.1361   17.8539 C   0  0  0  0  0  0  0  0  0  0  0  0
    6.5008   -7.8020   17.4227 C   0  0  0  0  0  0  0  0  0  0  0  0
    8.3577   -6.7480   18.0416 N   0  0  0  0  0  0  0  0  0  0  0  0
    0.5757  -11.4515   20.7070 C   0  0  0  0  0  0  0  0  0  0  0  0
    2.9705  -10.2855   18.0290 C   0  0  0  0  0  0  0  0  0  0  0  0
    9.5112   -5.1698   18.5585 C   0  0  0  0  0  0  0  0  0  0  0  0
    5.9988   -6.8890   15.2029 C   0  0  0  0  0  0  0  0  0  0  0  0
    5.3665   -8.3063   17.0602 C   0  0  0  0  0  0  0  0  0  0  0  0
    7.8466   -6.9114   17.3834 C   0  0  0  0  0  0  0  0  0  0  0  0
    4.2863  -10.6294   19.0202 N   0  0  0  0  0  0  0  0  0  0  0  0
   11.1164   -3.7092   21.2641 C   0  0  0  0  0  0  0  0  0  0  0  0
    1.1891  -11.7302   22.0746 S   0  0  0  0  0  0  0  0  0  0  0  0
    4.6019   -9.6796   17.2836 C   0  0  0  0  0  0  0  0  0  0  0  0
   -1.3690  -10.6856   21.6984 F   0  0  0  0  0  0  0  0  0  0  0  0
    3.3864   -9.8398   17.0705 C   0  0  0  0  0  0  0  0  0  0  0  0
    9.2419   -3.9402   16.6437 N   0  0  0  0  0  0  0  0  0  0  0  0
   11.0287   -3.0384   19.5253 C   0  0  0  0  0  0  0  0  0  0  0  0
   -0.5697  -11.0543   23.1023 C   0  0  0  0  0  0  0  0  0  0  0  0
    7.2482   -6.1916   16.1486 C   0  0  0  0  0  0  0  0  0  0  0  0
   -0.8423  -10.9122   20.8045 C   0  0  0  0  0  0  0  0  0  0  0  0
    1.0675  -12.0223   19.1410 S   0  0  0  0  0  0  0  0  0  0  0  0
    2.4997   -8.7634   15.4212 N   0  0  0  0  0  0  0  0  0  0  0  0
   10.6091   -4.0251   20.0367 C   0  0  0  0  0  0  0  0  0  0  0  0
    1.8274  -10.7766   18.1043 N   0  0  0  0  0  0  0  0  0  0  0  0
    5.9889   -7.7714   15.7113 C   0  0  0  0  0  0  0  0  0  0  0  0
   11.0621   -2.8486   22.3655 He  0  0  0  0  0  0  0  0  0  0  0  0
    0.8833  -10.0477   17.8116 He  0  0  0  0  0  0  0  0  0  0  0  0
    9.9308   -4.9948   19.9179 He  0  0  0  0  0  0  0  0  0  0  0  0
   10.1054   -4.0761   17.5880 He  0  0  0  0  0  0  0  0  0  0  0  0
    0.5735   -9.2000   16.4749 He  0  0  0  0  0  0  0  0  0  0  0  0
  1  6  4  0
  1 20  4  0
  1 23  4  0
  1 29  2  0
  2  9  1  0
  2 14  3  0
  2 15  1  0
  2 29  1  0
  3 12  2  0
  3 14  1  0
  3 16  4  0
  3 20  4  0
  3 21  4  0
  3 22  3  0
  3 29  2  0
  4  5  2  0
  4 12  4  0
  4 18  2  0
  4 21  1  0
  4 24  2  0
  5 21  4  0
  6 13  4  0
  6 19  2  0
  6 29  4  0
  7  8  1  0
  7 10  4  0
  7 13  4  0
  7 21  2  0
  8 16  3  0
  8 25  1  0
  8 27  3  0
  9 10  2  0
  9 14  4  0
  9 19  4  0
  9 21  2  0
  9 22  2  0
  9 28  4  0
 10 19  2  0
 10 26  4  0
 11 16  4  0
 11 18  3  0
 11 29  4  0
 12 13  2  0
 12 17  2  0
 12 29  4  0
 13 21  1  0
 13 23  4  0
 14 20  4  0
 14 25  3  0
 14 26  4  0
 15 27  1  0
 15 28  4  0
 16 21  4  0
 16 25  4  0
 17 19  4  0
 18 22  4  0
 18 24  4  0
 19 23  3  0
 19 26  4  0
 20 26  3  0
 20 27  1  0
 21 24  1  0
 21 25  1  0
 21 27  4  0
 27 28  1  0
M  END
$$$$

 Created by Python create_sdf_string function

 34 39  0  0  0  0  0  0  0  0999 V2000
   11.0924   -2.7422   22.1101 O   0  0  0  0  0  0  0  0  0  0  0  0
    8.2405   -5.1122   15.9450 C   0  0  0  0  0  0  0  0  0  0  0  0
   11.1092   -4.9087   22.2715 O   0  0  0  0  0  0  0  0  0  0  0  0
    0.6170  -10.1948   17.5160 N   0  0  0  0  0  0  0  0  0  0  0  0
    0.6368  -11.4178   22.9686 C   0  0  0  0  0  0  0  0  0  0  0  0
    5.0984  -10.2588   18.2476 C   0  0  0  0  0  0  0  0  0  0  0  0
   10.5724   -3.2506   17.8528 C   0  0  0  0  0  0  0  0  0  0  0  0
    6.7293   -7.9697   17.6118 C   0  0  0  0  0  0  0  0  0  0  0  0
    8.5768   -6.3634   18.2130 N   0  0  0  0  0  0  0  0  0  0  0  0
   10.0076   -5.1656   19.7258 C   0  0  0  0  0  0  0  0  0  0  0  0
    0.6121  -11.4639   20.5718 C   0  0  0  0  0  0  0  0  0  0  0  0
    2.9210  -10.4423   18.0666 C   0  0  0  0  0  0  0  0  0  0  0  0
    9.7573   -4.2959   17.5659 C   0  0  0  0  0  0  0  0  0  0  0  0
    9.4476   -5.2503   18.4718 C   0  0  0  0  0  0  0  0  0  0  0  0
    6.4779   -6.6341   15.3115 C   0  0  0  0  0  0  0  0  0  0  0  0
    5.6334   -8.3594   16.8130 C   0  0  0  0  0  0  0  0  0  0  0  0
    7.5905   -6.8568   17.3453 C   0  0  0  0  0  0  0  0  0  0  0  0
    3.9836  -10.9088   18.7465 N   0  0  0  0  0  0  0  0  0  0  0  0
   10.9947   -3.8405   21.5957 C   0  0  0  0  0  0  0  0  0  0  0  0
    1.2380  -11.6745   21.7615 C   0  0  0  0  0  0  0  0  0  0  0  0
    4.7093   -9.3734   17.2987 C   0  0  0  0  0  0  0  0  0  0  0  0
   -1.3149  -10.7230   21.8396 C   0  0  0  0  0  0  0  0  0  0  0  0
    3.3016   -9.5553   17.0921 C   0  0  0  0  0  0  0  0  0  0  0  0
    9.2096   -4.3222   16.3071 N   0  0  0  0  0  0  0  0  0  0  0  0
   11.0014   -3.0368   19.2185 C   0  0  0  0  0  0  0  0  0  0  0  0
    1.0419   -9.3573   16.4628 C   0  0  0  0  0  0  0  0  0  0  0  0
   -0.6146  -10.9146   23.0026 C   0  0  0  0  0  0  0  0  0  0  0  0
    7.4318   -6.2199   16.1643 C   0  0  0  0  0  0  0  0  0  0  0  0
   -0.7314  -10.9975   20.6442 C   0  0  0  0  0  0  0  0  0  0  0  0
    1.2930  -11.8186   19.2520 C   0  0  0  0  0  0  0  0  0  0  0  0
    2.3744   -9.0501   16.1997 N   0  0  0  0  0  0  0  0  0  0  0  0
   10.6798   -4.0082   20.1372 C   0  0  0  0  0  0  0  0  0  0  0  0
    1.6287  -10.7563   18.3039 C   0  0  0  0  0  0  0  0  0  0  0  0
    5.6201   -7.6391   15.6098 C   0  0  0  0  0  0  0  0  0  0  0  0
  1 19  2  0
  2 24  4  0
  2 28  4  0
  3 19  1  0
  4 26  4  0
  4 33  4  0
  5 20  4  0
  5 27  4  0
  6 18  4  0
  6 21  4  0
  7 13  4  0
  7 25  4  0
  8 16  4  0
  8 17  4  0
  9 14  4  0
  9 17  4  0
 10 14  4  0
 10 32  4  0
 11 20  4  0
 11 29  4  0
 11 30  1  0
 12 18  4  0
 12 23  4  0
 12 33  4  0
 13 14  4  0
 13 24  4  0
 15 28  4  0
 15 34  4  0
 16 21  1  0
 16 34  4  0
 17 28  4  0
 19 32  1  0
 21 23  4  0
 22 27  4  0
 22 29  4  0
 23 31  4  0
 25 32  4  0
 26 31  4  0
 30 33  1  0
M  END
$$$$

 Created by Python create_sdf_string function

 34 68  0  0  0  0  0  0  0  0999 V2000
   11.0435   -2.6998   22.0146 O   0  0  0  0  0  0  0  0  0  0  0  0
    8.2485   -5.0814   16.1729 C   0  0  0  0  0  0  0  0  0  0  0  0
   11.0503   -4.8734   22.2183 O   0  0  0  0  0  0  0  0  0  0  0  0
    0.9640   -9.9785   17.4599 N   0  0  0  0  0  0  0  0  0  0  0  0
    0.6810  -11.2029   22.8239 C   0  0  0  0  0  0  0  0  0  0  0  0
    4.9671  -10.3052   18.1309 N   0  0  0  0  0  0  0  0  0  0  0  0
   10.4197   -3.2140   17.6296 C   0  0  0  0  0  0  0  0  0  0  0  0
    6.6373   -7.4392   17.3386 C   0  0  0  0  0  0  0  0  0  0  0  0
    8.6786   -6.0627   18.2885 Cl  0  0  0  0  0  0  0  0  0  0  0  0
   10.0230   -4.9779   19.7617 C   0  0  0  0  0  0  0  0  0  0  0  0
    0.5474  -11.3416   20.5444 C   0  0  0  0  0  0  0  0  0  0  0  0
    9.4955   -5.1792   18.4263 C   0  0  0  0  0  0  0  0  0  0  0  0
    6.3281   -6.7770   14.7270 C   0  0  0  0  0  0  0  0  0  0  0  0
    5.5486   -8.5618   16.9833 C   0  0  0  0  0  0  0  0  0  0  0  0
    7.5985   -6.9022   17.2371 C   0  0  0  0  0  0  0  0  0  0  0  0
    4.2418  -10.9925   18.9890 N   0  0  0  0  0  0  0  0  0  0  0  0
   11.0642   -3.6255   21.5463 C   0  0  0  0  0  0  0  0  0  0  0  0
    1.0977  -11.5955   21.9581 C   0  0  0  0  0  0  0  0  0  0  0  0
    4.6997   -8.5438   17.2610 C   0  0  0  0  0  0  0  0  0  0  0  0
   -1.2609  -10.6499   21.7942 C   0  0  0  0  0  0  0  0  0  0  0  0
    3.1993   -9.5074   16.9443 C   0  0  0  0  0  0  0  0  0  0  0  0
    9.0225   -4.3508   16.2691 N   0  0  0  0  0  0  0  0  0  0  0  0
   11.1333   -3.1001   19.3894 C   0  0  0  0  0  0  0  0  0  0  0  0
    1.1354   -9.2464   16.5069 C   0  0  0  0  0  0  0  0  0  0  0  0
   -0.5926  -11.0443   22.9757 Cl  0  0  0  0  0  0  0  0  0  0  0  0
   -0.6974  -10.8222   20.2713 C   0  0  0  0  0  0  0  0  0  0  0  0
    1.0976  -11.6335   19.1736 C   0  0  0  0  0  0  0  0  0  0  0  0
    2.5504   -8.6761   16.1206 N   0  0  0  0  0  0  0  0  0  0  0  0
   10.8809   -4.2810   20.0615 C   0  0  0  0  0  0  0  0  0  0  0  0
    1.7865  -10.7947   18.2983 C   0  0  0  0  0  0  0  0  0  0  0  0
    5.8013   -7.5811   15.5154 C   0  0  0  0  0  0  0  0  0  0  0  0
    3.1856   -9.8783   18.6874 He  0  0  0  0  0  0  0  0  0  0  0  0
    9.8662   -4.2921   17.7324 He  0  0  0  0  0  0  0  0  0  0  0  0
    7.4546   -5.8900   15.5464 He  0  0  0  0  0  0  0  0  0  0  0  0
  1  8  4  0
  1 17  2  0
  1 21  4  0
  1 24  4  0
  2  6  1  0
  2 13  2  0
  2 14  1  0
  2 22  4  0
  2 25  2  0
  3  9  3  0
  3 13  2  0
  3 17  1  0
  3 28  4  0
  3 31  2  0
  4  7  3  0
  4 24  4  0
  4 30  4  0
  4 31  2  0
  5 18  4  0
  5 23  1  0
  5 25  4  0
  6 16  3  0
  6 19  4  0
  6 23  3  0
  6 27  1  0
  7 16  4  0
  7 23  4  0
  8 14  4  0
  8 17  3  0
  8 21  1  0
  8 31  4  0
  9 12  3  0
  9 13  3  0
  9 15  4  0
  9 27  4  0
 10 12  4  0
 10 24  4  0
 10 29  4  0
 11 18  4  0
 11 26  4  0
 11 27  1  0
 12 19  1  0
 12 24  3  0
 12 31  3  0
 13 31  4  0
 14 18  3  0
 14 19  1  0
 14 20  4  0
 14 23  1  0
 14 31  4  0
 16 22  2  0
 17 21  4  0
 17 28  1  0
 17 31  1  0
 18 21  2  0
 18 24  1  0
 18 28  1  0
 18 30  3  0
 19 21  4  0
 19 29  4  0
 20 25  4  0
 20 26  4  0
 21 28  4  0
 23 25  4  0
 23 29  4  0
 23 31  4  0
 26 28  4  0
 27 30  1  0
M  END
$$$$

 Created by Python create_sdf_string function

 34 39  0  0  0  0  0  0  0  0999 V2000
   11.1946   -2.6656   21.9920 O   0  0  0  0  0  0  0  0  0  0  0  0
    8.3586   -5.2007   15.9580 C   0  0  0  0  0  0  0  0  0  0  0  0
   11.0347   -4.8393   22.2699 O   0  0  0  0  0  0  0  0  0  0  0  0
    0.7383  -10.1069   17.4443 N   0  0  0  0  0  0  0  0  0  0  0  0
    0.6309  -11.3772   22.8437 C   0  0  0  0  0  0  0  0  0  0  0  0
    5.1550  -10.0405   18.2993 N   0  0  0  0  0  0  0  0  0  0  0  0
   10.6154   -3.2690   17.7780 C   0  0  0  0  0  0  0  0  0  0  0  0
    6.6860   -7.6939   17.4601 C   0  0  0  0  0  0  0  0  0  0  0  0
    8.4882   -6.3112   18.0640 N   0  0  0  0  0  0  0  0  0  0  0  0
   10.0064   -5.1588   19.6977 C   0  0  0  0  0  0  0  0  0  0  0  0
    0.6101  -11.3580   20.4578 C   0  0  0  0  0  0  0  0  0  0  0  0
    3.0032  -10.3042   18.1030 C   0  0  0  0  0  0  0  0  0  0  0  0
    9.7686   -4.2813   17.4860 C   0  0  0  0  0  0  0  0  0  0  0  0
    9.4499   -5.2627   18.4416 C   0  0  0  0  0  0  0  0  0  0  0  0
    6.4186   -6.6869   15.0063 C   0  0  0  0  0  0  0  0  0  0  0  0
    5.6737   -8.1969   16.7741 C   0  0  0  0  0  0  0  0  0  0  0  0
    7.6063   -6.6772   17.1950 C   0  0  0  0  0  0  0  0  0  0  0  0
    4.0812  -10.7450   18.7509 N   0  0  0  0  0  0  0  0  0  0  0  0
   11.0042   -3.8006   21.5111 C   0  0  0  0  0  0  0  0  0  0  0  0
    1.2327  -11.6014   21.6756 C   0  0  0  0  0  0  0  0  0  0  0  0
    4.7575   -9.1622   17.3353 C   0  0  0  0  0  0  0  0  0  0  0  0
   -1.3317  -10.6605   21.7052 C   0  0  0  0  0  0  0  0  0  0  0  0
    3.3837   -9.3619   17.1755 C   0  0  0  0  0  0  0  0  0  0  0  0
    9.1194   -4.4201   16.2744 N   0  0  0  0  0  0  0  0  0  0  0  0
   11.0481   -3.0758   19.1247 C   0  0  0  0  0  0  0  0  0  0  0  0
    1.2019   -9.1937   16.4697 C   0  0  0  0  0  0  0  0  0  0  0  0
   -0.6527  -10.8698   22.8849 C   0  0  0  0  0  0  0  0  0  0  0  0
    7.4861   -6.0522   15.8033 C   0  0  0  0  0  0  0  0  0  0  0  0
   -0.7254  -10.8612   20.5271 C   0  0  0  0  0  0  0  0  0  0  0  0
    1.2676  -11.6835   19.1898 C   0  0  0  0  0  0  0  0  0  0  0  0
    2.5013   -8.7915   16.3520 N   0  0  0  0  0  0  0  0  0  0  0  0
   10.6980   -4.0153   20.0805 C   0  0  0  0  0  0  0  0  0  0  0  0
    1.6902  -10.6544   18.2682 C   0  0  0  0  0  0  0  0  0  0  0  0
    5.6088   -7.6780   15.5225 C   0  0  0  0  0  0  0  0  0  0  0  0
  1 19  2  0
  2 24  4  0
  2 28  4  0
  3 19  1  0
  4 26  4  0
  4 33  4  0
  5 20  4  0
  5 27  4  0
  6 18  4  0
  6 21  4  0
  7 13  4  0
  7 25  4  0
  8 16  4  0
  8 17  4  0
  9 14  4  0
  9 17  4  0
 10 14  4  0
 10 32  4  0
 11 20  4  0
 11 29  4  0
 11 30  1  0
 12 18  4  0
 12 23  4  0
 12 33  4  0
 13 14  4  0
 13 24  4  0
 15 28  4  0
 15 34  4  0
 16 21  1  0
 16 34  4  0
 17 28  4  0
 19 32  1  0
 21 23  4  0
 22 27  4  0
 22 29  4  0
 23 31  4  0
 25 32  4  0
 26 31  4  0
 30 33  1  0
M  END
$$$$

 Created by Python create_sdf_string function

 34 85  0  0  0  0  0  0  0  0999 V2000
   11.2880   -2.6167   22.1754 O   0  0  0  0  0  0  0  0  0  0  0  0
    8.2754   -4.9277   15.9242 C   0  0  0  0  0  0  0  0  0  0  0  0
   11.0246   -4.9017   22.1017 O   0  0  0  0  0  0  0  0  0  0  0  0
    0.7652  -10.0369   17.7110 N   0  0  0  0  0  0  0  0  0  0  0  0
    0.6622  -11.2846   22.8049 F   0  0  0  0  0  0  0  0  0  0  0  0
    5.0941  -10.0758   18.7934 N   0  0  0  0  0  0  0  0  0  0  0  0
   10.6862   -3.2099   18.0181 C   0  0  0  0  0  0  0  0  0  0  0  0
    6.4189   -7.8280   17.3808 C   0  0  0  0  0  0  0  0  0  0  0  0
    8.3360   -5.5351   18.0850 N   0  0  0  0  0  0  0  0  0  0  0  0
   10.0014   -4.9631   19.7551 C   0  0  0  0  0  0  0  0  0  0  0  0
    0.6511  -11.3843   20.2881 C   0  0  0  0  0  0  0  0  0  0  0  0
    3.2735  -10.4562   18.2549 S   0  0  0  0  0  0  0  0  0  0  0  0
   10.1708   -4.3252   17.2579 C   0  0  0  0  0  0  0  0  0  0  0  0
    9.4567   -5.4676   18.3740 C   0  0  0  0  0  0  0  0  0  0  0  0
    6.6297   -6.2226   15.2051 C   0  0  0  0  0  0  0  0  0  0  0  0
    5.7395   -7.8705   16.6254 C   0  0  0  0  0  0  0  0  0  0  0  0
    7.7439   -6.4946   17.0868 C   0  0  0  0  0  0  0  0  0  0  0  0
    4.6031  -11.0524   18.5041 N   0  0  0  0  0  0  0  0  0  0  0  0
   11.2293   -3.6551   21.6295 C   0  0  0  0  0  0  0  0  0  0  0  0
    1.6235  -11.4908   21.8511 C   0  0  0  0  0  0  0  0  0  0  0  0
   -1.2541  -10.9362   21.4269 C   0  0  0  0  0  0  0  0  0  0  0  0
    3.4942   -9.4235   17.0146 C   0  0  0  0  0  0  0  0  0  0  0  0
    9.4971   -4.2874   16.0970 N   0  0  0  0  0  0  0  0  0  0  0  0
   11.0314   -2.8822   19.0919 C   0  0  0  0  0  0  0  0  0  0  0  0
    1.0669   -9.1456   16.6601 N   0  0  0  0  0  0  0  0  0  0  0  0
   -0.6436  -10.6749   22.7535 C   0  0  0  0  0  0  0  0  0  0  0  0
    7.8906   -6.1064   15.5594 C   0  0  0  0  0  0  0  0  0  0  0  0
   -0.5618  -10.9306   20.6629 C   0  0  0  0  0  0  0  0  0  0  0  0
    1.2235  -11.5725   19.2950 C   0  0  0  0  0  0  0  0  0  0  0  0
    2.5866   -8.9892   16.1040 N   0  0  0  0  0  0  0  0  0  0  0  0
   10.7750   -3.7988   19.9942 C   0  0  0  0  0  0  0  0  0  0  0  0
    1.5999  -10.6281   18.3965 C   0  0  0  0  0  0  0  0  0  0  0  0
    5.5903   -7.7126   15.8068 C   0  0  0  0  0  0  0  0  0  0  0  0
    5.0232   -9.2050   17.5155 He  0  0  0  0  0  0  0  0  0  0  0  0
  1  2  2  0
  1  7  1  0
  1 10  4  0
  1 19  2  0
  1 20  3  0
  2  4  3  0
  2 21  4  0
  2 23  4  0
  2 27  4  0
  2 30  2  0
  2 32  4  0
  3 19  1  0
  4 20  2  0
  4 23  3  0
  4 24  1  0
  4 25  4  0
  4 30  1  0
  4 32  4  0
  5  6  1  0
  5 12  2  0
  5 16  4  0
  5 20  4  0
  5 25  4  0
  6  7  3  0
  6 18  4  0
  6 24  2  0
  6 32  2  0
  7 13  4  0
  7 24  4  0
  7 30  1  0
  8 16  4  0
  8 17  4  0
  9 14  4  0
  9 17  4  0
  9 18  4  0
  9 23  2  0
  9 28  1  0
  9 30  3  0
 10 14  2  0
 10 18  3  0
 10 27  1  0
 10 31  4  0
 11 16  2  0
 11 20  4  0
 11 27  2  0
 11 28  4  0
 11 29  1  0
 12 14  2  0
 12 21  1  0
 12 22  4  0
 12 32  4  0
 13 14  4  0
 13 16  2  0
 13 23  1  0
 14 18  1  0
 15 17  2  0
 15 20  1  0
 15 22  1  0
 15 26  3  0
 15 27  4  0
 15 32  4  0
 15 33  4  0
 16 19  3  0
 16 33  4  0
 17 27  4  0
 18 22  2  0
 18 23  2  0
 18 25  1  0
 18 28  3  0
 19 27  3  0
 19 28  2  0
 19 30  1  0
 21 26  4  0
 21 28  4  0
 23 27  2  0
 23 28  2  0
 24 25  3  0
 24 30  4  0
 24 31  4  0
 25 29  3  0
 26 27  1  0
 28 30  3  0
 28 33  1  0
 29 30  2  0
 29 32  1  0
M  END
$$$$

 Created by Python create_sdf_string function

 34 39  0  0  0  0  0  0  0  0999 V2000
   11.3684   -2.6155   21.9895 O   0  0  0  0  0  0  0  0  0  0  0  0
    8.4527   -5.0641   15.6715 C   0  0  0  0  0  0  0  0  0  0  0  0
   11.0240   -4.8157   22.2454 O   0  0  0  0  0  0  0  0  0  0  0  0
    0.8639  -10.0771   17.5295 N   0  0  0  0  0  0  0  0  0  0  0  0
    0.6743  -11.2816   22.7846 C   0  0  0  0  0  0  0  0  0  0  0  0
    5.2814   -9.9586   18.3270 N   0  0  0  0  0  0  0  0  0  0  0  0
   10.7893   -3.2082   17.7371 C   0  0  0  0  0  0  0  0  0  0  0  0
    6.7561   -7.5909   17.6211 C   0  0  0  0  0  0  0  0  0  0  0  0
    8.6288   -6.1050   18.0854 N   0  0  0  0  0  0  0  0  0  0  0  0
    9.9971   -4.9791   19.7169 C   0  0  0  0  0  0  0  0  0  0  0  0
    0.7153  -11.4013   20.4025 C   0  0  0  0  0  0  0  0  0  0  0  0
    3.1493  -10.3538   18.0838 C   0  0  0  0  0  0  0  0  0  0  0  0
    9.9071   -4.1940   17.4537 C   0  0  0  0  0  0  0  0  0  0  0  0
    9.5099   -5.0760   18.4350 C   0  0  0  0  0  0  0  0  0  0  0  0
    6.5745   -6.5328   15.1768 C   0  0  0  0  0  0  0  0  0  0  0  0
    5.7642   -8.0674   16.8316 C   0  0  0  0  0  0  0  0  0  0  0  0
    7.6338   -6.5567   17.2390 C   0  0  0  0  0  0  0  0  0  0  0  0
    4.2497  -10.7634   18.7489 N   0  0  0  0  0  0  0  0  0  0  0  0
   11.0697   -3.7385   21.5106 C   0  0  0  0  0  0  0  0  0  0  0  0
    1.3020  -11.5537   21.6419 C   0  0  0  0  0  0  0  0  0  0  0  0
    4.8689   -9.0902   17.3765 C   0  0  0  0  0  0  0  0  0  0  0  0
   -1.3111  -10.7350   21.5820 C   0  0  0  0  0  0  0  0  0  0  0  0
    3.5135   -9.3756   17.1612 C   0  0  0  0  0  0  0  0  0  0  0  0
    9.4272   -4.3300   16.1178 N   0  0  0  0  0  0  0  0  0  0  0  0
   11.1269   -2.9914   19.1398 C   0  0  0  0  0  0  0  0  0  0  0  0
    1.2758   -9.1958   16.5164 C   0  0  0  0  0  0  0  0  0  0  0  0
   -0.6509  -10.8833   22.7857 C   0  0  0  0  0  0  0  0  0  0  0  0
    7.5459   -6.0223   15.9983 C   0  0  0  0  0  0  0  0  0  0  0  0
   -0.6461  -10.9784   20.4342 C   0  0  0  0  0  0  0  0  0  0  0  0
    1.4468  -11.7059   19.1996 C   0  0  0  0  0  0  0  0  0  0  0  0
    2.5920   -8.8381   16.3577 N   0  0  0  0  0  0  0  0  0  0  0  0
   10.7450   -3.8998   20.0909 C   0  0  0  0  0  0  0  0  0  0  0  0
    1.8053  -10.6966   18.2657 C   0  0  0  0  0  0  0  0  0  0  0  0
    5.6936   -7.5207   15.6338 C   0  0  0  0  0  0  0  0  0  0  0  0
  1 19  2  0
  2 24  4  0
  2 28  4  0
  3 19  1  0
  4 26  4  0
  4 33  4  0
  5 20  4  0
  5 27  4  0
  6 18  4  0
  6 21  4  0
  7 13  4  0
  7 25  4  0
  8 16  4  0
  8 17  4  0
  9 14  4  0
  9 17  4  0
 10 14  4  0
 10 32  4  0
 11 20  4  0
 11 29  4  0
 11 30  1  0
 12 18  4  0
 12 23  4  0
 12 33  4  0
 13 14  4  0
 13 24  4  0
 15 28  4  0
 15 34  4  0
 16 21  1  0
 16 34  4  0
 17 28  4  0
 19 32  1  0
 21 23  4  0
 22 27  4  0
 22 29  4  0
 23 31  4  0
 25 32  4  0
 26 31  4  0
 30 33  1  0
M  END
$$$$

 Created by Python create_sdf_string function

 34 51  0  0  0  0  0  0  0  0999 V2000
   11.1558   -2.7096   21.7387 O   0  0  0  0  0  0  0  0  0  0  0  0
   11.0524   -4.9670   22.2420 S   0  0  0  0  0  0  0  0  0  0  0  0
    1.1997  -10.0124   17.5130 N   0  0  0  0  0  0  0  0  0  0  0  0
    0.7249  -11.2358   22.7664 C   0  0  0  0  0  0  0  0  0  0  0  0
    5.5115   -9.6582   18.5576 B   0  0  0  0  0  0  0  0  0  0  0  0
   10.9844   -3.3040   17.8212 C   0  0  0  0  0  0  0  0  0  0  0  0
    6.2105   -7.5357   17.5967 C   0  0  0  0  0  0  0  0  0  0  0  0
    8.4810   -6.2582   17.8816 N   0  0  0  0  0  0  0  0  0  0  0  0
    0.6170  -11.3853   20.3680 C   0  0  0  0  0  0  0  0  0  0  0  0
    3.3030  -10.0211   17.8929 N   0  0  0  0  0  0  0  0  0  0  0  0
    9.9507   -4.3510   17.5834 C   0  0  0  0  0  0  0  0  0  0  0  0
    9.5628   -5.2229   18.6172 C   0  0  0  0  0  0  0  0  0  0  0  0
    6.3605   -7.0283   15.6186 O   0  0  0  0  0  0  0  0  0  0  0  0
    4.3061   -9.9372   18.6027 C   0  0  0  0  0  0  0  0  0  0  0  0
   11.1180   -3.5524   21.5554 C   0  0  0  0  0  0  0  0  0  0  0  0
    1.6359  -11.5872   21.4720 C   0  0  0  0  0  0  0  0  0  0  0  0
    4.8394   -9.2570   17.1909 C   0  0  0  0  0  0  0  0  0  0  0  0
   -1.3662  -10.7961   21.4110 C   0  0  0  0  0  0  0  0  0  0  0  0
    3.4856   -9.2625   17.1412 C   0  0  0  0  0  0  0  0  0  0  0  0
    9.5093   -4.2339   16.2273 N   0  0  0  0  0  0  0  0  0  0  0  0
   11.0751   -3.1524   19.0229 C   0  0  0  0  0  0  0  0  0  0  0  0
    1.1222   -9.5241   16.7656 C   0  0  0  0  0  0  0  0  0  0  0  0
   -0.6800  -11.0118   22.6622 C   0  0  0  0  0  0  0  0  0  0  0  0
    7.3585   -5.9812   16.3607 C   0  0  0  0  0  0  0  0  0  0  0  0
   -0.5546  -10.8579   20.4723 C   0  0  0  0  0  0  0  0  0  0  0  0
    1.3804  -11.6887   18.9630 C   0  0  0  0  0  0  0  0  0  0  0  0
   10.8200   -3.9679   20.2290 C   0  0  0  0  0  0  0  0  0  0  0  0
    1.7627  -10.5066   18.1495 C   0  0  0  0  0  0  0  0  0  0  0  0
    5.6831   -7.4979   15.6254 C   0  0  0  0  0  0  0  0  0  0  0  0
    8.4906   -5.0004   15.6936 He  0  0  0  0  0  0  0  0  0  0  0  0
    9.9122   -4.8392   19.7737 He  0  0  0  0  0  0  0  0  0  0  0  0
    5.5787   -7.7462   16.5058 He  0  0  0  0  0  0  0  0  0  0  0  0
    7.5856   -6.4029   17.4073 He  0  0  0  0  0  0  0  0  0  0  0  0
    2.4633   -8.7046   16.3958 He  0  0  0  0  0  0  0  0  0  0  0  0
  1 21  1  0
  1 28  3  0
  2 15  1  0
  2 17  2  0
  2 27  4  0
  3  4  1  0
  3 22  4  0
  4 16  4  0
  4 17  3  0
  4 23  4  0
  4 28  3  0
  5 10  1  0
  5 14  4  0
  5 17  4  0
  6 10  4  0
  6 11  3  0
  6 21  2  0
  6 23  2  0
  8 12  4  0
  8 18  1  0
  8 19  4  0
  8 20  1  0
  9 16  4  0
  9 26  1  0
 10 14  4  0
 10 16  3  0
 10 28  4  0
 11 12  4  0
 11 20  4  0
 11 21  2  0
 12 18  4  0
 13 16  1  0
 13 17  1  0
 13 21  1  0
 13 23  4  0
 13 29  4  0
 15 16  1  0
 15 24  1  0
 15 27  1  0
 16 22  1  0
 17 19  4  0
 17 22  1  0
 17 29  1  0
 18 23  4  0
 18 25  4  0
 19 26  1  0
 21 27  4  0
 22 27  3  0
 24 25  3  0
 25 28  2  0
 26 28  1  0
M  END
$$$$

 Created by Python create_sdf_string function

 34 39  0  0  0  0  0  0  0  0999 V2000
   11.3311   -2.5877   21.8710 O   0  0  0  0  0  0  0  0  0  0  0  0
    8.3765   -5.0526   15.7378 C   0  0  0  0  0  0  0  0  0  0  0  0
   11.0240   -4.8127   22.2784 O   0  0  0  0  0  0  0  0  0  0  0  0
    0.8873  -10.1263   17.4047 N   0  0  0  0  0  0  0  0  0  0  0  0
    0.7040  -11.3695   22.6847 C   0  0  0  0  0  0  0  0  0  0  0  0
    5.2427   -9.7751   18.4037 N   0  0  0  0  0  0  0  0  0  0  0  0
   10.8364   -3.2913   17.7336 C   0  0  0  0  0  0  0  0  0  0  0  0
    6.6048   -7.4213   17.7372 C   0  0  0  0  0  0  0  0  0  0  0  0
    8.4994   -6.0528   18.2135 N   0  0  0  0  0  0  0  0  0  0  0  0
    9.9900   -5.0284   19.7282 C   0  0  0  0  0  0  0  0  0  0  0  0
    0.7412  -11.3827   20.2933 C   0  0  0  0  0  0  0  0  0  0  0  0
    3.1173  -10.2039   18.1016 N   0  0  0  0  0  0  0  0  0  0  0  0
    9.9087   -4.2879   17.4374 C   0  0  0  0  0  0  0  0  0  0  0  0
    9.4655   -5.1419   18.4295 C   0  0  0  0  0  0  0  0  0  0  0  0
    6.6126   -6.5002   15.2012 C   0  0  0  0  0  0  0  0  0  0  0  0
    5.6687   -7.9484   16.8514 C   0  0  0  0  0  0  0  0  0  0  0  0
    7.5544   -6.5378   17.3346 C   0  0  0  0  0  0  0  0  0  0  0  0
    4.2378  -10.5338   18.7568 C   0  0  0  0  0  0  0  0  0  0  0  0
   11.0560   -3.7241   21.4675 C   0  0  0  0  0  0  0  0  0  0  0  0
    1.3355  -11.5741   21.5271 C   0  0  0  0  0  0  0  0  0  0  0  0
    4.7996   -8.9238   17.3799 C   0  0  0  0  0  0  0  0  0  0  0  0
   -1.2839  -10.7692   21.4942 C   0  0  0  0  0  0  0  0  0  0  0  0
    3.4444   -9.2462   17.1423 C   0  0  0  0  0  0  0  0  0  0  0  0
    9.4074   -4.3565   16.1958 N   0  0  0  0  0  0  0  0  0  0  0  0
   11.1748   -3.0746   19.0910 C   0  0  0  0  0  0  0  0  0  0  0  0
    1.2582   -9.2201   16.4505 C   0  0  0  0  0  0  0  0  0  0  0  0
   -0.6116  -10.9514   22.6944 C   0  0  0  0  0  0  0  0  0  0  0  0
    7.5440   -6.0463   16.0797 C   0  0  0  0  0  0  0  0  0  0  0  0
   -0.6318  -10.9765   20.3187 C   0  0  0  0  0  0  0  0  0  0  0  0
    1.5157  -11.6726   19.0938 C   0  0  0  0  0  0  0  0  0  0  0  0
    2.5171   -8.8196   16.2416 C   0  0  0  0  0  0  0  0  0  0  0  0
   10.7405   -3.9451   20.0610 C   0  0  0  0  0  0  0  0  0  0  0  0
    1.8355  -10.6331   18.2017 C   0  0  0  0  0  0  0  0  0  0  0  0
    5.7197   -7.4639   15.5426 C   0  0  0  0  0  0  0  0  0  0  0  0
  1 19  2  0
  2 24  4  0
  2 28  4  0
  3 19  1  0
  4 26  4  0
  4 33  4  0
  5 20  4  0
  5 27  4  0
  6 18  4  0
  6 21  4  0
  7 13  4  0
  7 25  4  0
  8 16  4  0
  8 17  4  0
  9 14  4  0
  9 17  4  0
 10 14  4  0
 10 32  4  0
 11 20  4  0
 11 29  4  0
 11 30  1  0
 12 18  4  0
 12 23  4  0
 12 33  4  0
 13 14  4  0
 13 24  4  0
 15 28  4  0
 15 34  4  0
 16 21  1  0
 16 34  4  0
 17 28  4  0
 19 32  1  0
 21 23  4  0
 22 27  4  0
 22 29  4  0
 23 31  4  0
 25 32  4  0
 26 31  4  0
 30 33  1  0
M  END
$$$$

 Created by Python create_sdf_string function

 34 59  0  0  0  0  0  0  0  0999 V2000
   11.3622   -2.5665   21.9732 O   0  0  0  0  0  0  0  0  0  0  0  0
   11.1967   -5.0021   22.1784 O   0  0  0  0  0  0  0  0  0  0  0  0
    1.0134   -9.9384   17.1064 N   0  0  0  0  0  0  0  0  0  0  0  0
    0.7335  -11.4436   22.6115 C   0  0  0  0  0  0  0  0  0  0  0  0
    5.2171   -9.5538   18.6256 N   0  0  0  0  0  0  0  0  0  0  0  0
   10.7717   -3.3044   17.7782 C   0  0  0  0  0  0  0  0  0  0  0  0
    6.5600   -6.8815   17.9981 C   0  0  0  0  0  0  0  0  0  0  0  0
   10.0172   -5.0168   19.5289 C   0  0  0  0  0  0  0  0  0  0  0  0
    0.9498  -11.2425   20.2877 C   0  0  0  0  0  0  0  0  0  0  0  0
    3.2732  -10.4096   18.1780 N   0  0  0  0  0  0  0  0  0  0  0  0
    9.5718   -5.2053   18.7082 C   0  0  0  0  0  0  0  0  0  0  0  0
    6.7548   -6.5470   15.1771 C   0  0  0  0  0  0  0  0  0  0  0  0
    5.5287   -7.8873   16.8155 C   0  0  0  0  0  0  0  0  0  0  0  0
    7.3075   -6.8452   17.4041 C   0  0  0  0  0  0  0  0  0  0  0  0
    4.2118  -10.3756   18.5630 C   0  0  0  0  0  0  0  0  0  0  0  0
   11.0895   -3.4490   21.5869 C   0  0  0  0  0  0  0  0  0  0  0  0
    4.3022   -8.8585   17.4996 C   0  0  0  0  0  0  0  0  0  0  0  0
   -1.4958  -10.8767   21.5971 C   0  0  0  0  0  0  0  0  0  0  0  0
    3.5924   -9.2306   17.1135 C   0  0  0  0  0  0  0  0  0  0  0  0
   11.1597   -3.1893   19.1035 C   0  0  0  0  0  0  0  0  0  0  0  0
   -0.6500  -10.8584   22.5624 C   0  0  0  0  0  0  0  0  0  0  0  0
    7.5200   -6.3804   16.2601 C   0  0  0  0  0  0  0  0  0  0  0  0
   -0.7082  -10.7916   20.4699 C   0  0  0  0  0  0  0  0  0  0  0  0
    1.6630  -11.8805   19.0807 C   0  0  0  0  0  0  0  0  0  0  0  0
    2.3800   -9.2108   16.0546 C   0  0  0  0  0  0  0  0  0  0  0  0
   10.7336   -3.9113   20.0100 C   0  0  0  0  0  0  0  0  0  0  0  0
    2.1099  -10.5553   18.2530 F   0  0  0  0  0  0  0  0  0  0  0  0
    5.6388   -7.5285   15.6201 C   0  0  0  0  0  0  0  0  0  0  0  0
    8.2699   -5.2431   15.5686 He  0  0  0  0  0  0  0  0  0  0  0  0
    8.4077   -6.0560   18.5657 He  0  0  0  0  0  0  0  0  0  0  0  0
   10.0885   -4.2507   17.2269 He  0  0  0  0  0  0  0  0  0  0  0  0
    1.1929  -11.5436   21.2749 He  0  0  0  0  0  0  0  0  0  0  0  0
    9.2483   -4.4422   16.3155 He  0  0  0  0  0  0  0  0  0  0  0  0
    0.9087   -9.2889   16.5101 He  0  0  0  0  0  0  0  0  0  0  0  0
  1  2  3  0
  1 13  3  0
  1 16  2  0
  2  3  1  0
  2  6  3  0
  2 13  2  0
  2 15  4  0
  2 16  1  0
  3  4  1  0
  3 11  2  0
  3 18  3  0
  3 24  2  0
  3 27  4  0
  4  8  3  0
  4 13  3  0
  4 21  4  0
  4 28  1  0
  5 17  2  0
  5 19  4  0
  5 25  3  0
  5 27  1  0
  6 19  4  0
  6 20  4  0
  6 27  3  0
  7 13  4  0
  7 14  4  0
  7 26  3  0
  8 11  4  0
  8 14  1  0
  8 15  3  0
  8 26  4  0
  9 13  2  0
  9 24  1  0
  9 25  4  0
 10 15  1  0
 10 19  3  0
 10 20  2  0
 10 27  4  0
 10 28  1  0
 12 28  4  0
 13 17  1  0
 13 28  4  0
 14 22  4  0
 16 24  3  0
 16 26  1  0
 17 19  4  0
 17 20  3  0
 17 21  1  0
 17 25  4  0
 17 27  2  0
 18 21  4  0
 18 23  4  0
 20 21  3  0
 20 26  4  0
 22 23  1  0
 22 26  1  0
 22 27  4  0
 24 25  1  0
 24 27  1  0
M  END
$$$$

 Created by Python create_sdf_string function

 34 39  0  0  0  0  0  0  0  0999 V2000
   11.4123   -2.5539   21.8950 O   0  0  0  0  0  0  0  0  0  0  0  0
    8.4641   -5.2290   15.6953 C   0  0  0  0  0  0  0  0  0  0  0  0
   11.1219   -4.7408   22.2551 O   0  0  0  0  0  0  0  0  0  0  0  0
    0.8596  -10.2259   17.3143 N   0  0  0  0  0  0  0  0  0  0  0  0
    0.6737  -11.4105   22.6318 C   0  0  0  0  0  0  0  0  0  0  0  0
    5.1339   -9.7307   18.4748 N   0  0  0  0  0  0  0  0  0  0  0  0
   10.7788   -3.3066   17.7326 C   0  0  0  0  0  0  0  0  0  0  0  0
    6.4884   -7.3385   17.8105 C   0  0  0  0  0  0  0  0  0  0  0  0
    8.5104   -6.1581   18.2582 N   0  0  0  0  0  0  0  0  0  0  0  0
   10.0163   -5.0194   19.7467 C   0  0  0  0  0  0  0  0  0  0  0  0
    0.7344  -11.4268   20.2428 C   0  0  0  0  0  0  0  0  0  0  0  0
    3.1173  -10.2841   18.0318 C   0  0  0  0  0  0  0  0  0  0  0  0
    9.8790   -4.3231   17.4627 C   0  0  0  0  0  0  0  0  0  0  0  0
    9.4669   -5.1669   18.4833 C   0  0  0  0  0  0  0  0  0  0  0  0
    6.6875   -6.6342   15.2195 C   0  0  0  0  0  0  0  0  0  0  0  0
    5.6003   -7.8698   16.9208 C   0  0  0  0  0  0  0  0  0  0  0  0
    7.5090   -6.5199   17.4261 C   0  0  0  0  0  0  0  0  0  0  0  0
    4.2121  -10.5927   18.7182 C   0  0  0  0  0  0  0  0  0  0  0  0
   11.1467   -3.6762   21.4694 C   0  0  0  0  0  0  0  0  0  0  0  0
    1.3202  -11.6398   21.4698 C   0  0  0  0  0  0  0  0  0  0  0  0
    4.6998   -8.9210   17.4156 C   0  0  0  0  0  0  0  0  0  0  0  0
   -1.2759  -10.7265   21.4339 C   0  0  0  0  0  0  0  0  0  0  0  0
    3.3963   -9.3053   17.1092 C   0  0  0  0  0  0  0  0  0  0  0  0
    9.4000   -4.4447   16.1888 C   0  0  0  0  0  0  0  0  0  0  0  0
   11.1252   -3.0544   19.0516 C   0  0  0  0  0  0  0  0  0  0  0  0
    1.2161   -9.3711   16.3156 C   0  0  0  0  0  0  0  0  0  0  0  0
   -0.6392  -10.9769   22.6366 C   0  0  0  0  0  0  0  0  0  0  0  0
    7.5717   -6.0949   16.1188 C   0  0  0  0  0  0  0  0  0  0  0  0
   -0.6361  -10.9244   20.2852 C   0  0  0  0  0  0  0  0  0  0  0  0
    1.4553  -11.7562   19.0523 C   0  0  0  0  0  0  0  0  0  0  0  0
    2.4372   -8.8503   16.1936 C   0  0  0  0  0  0  0  0  0  0  0  0
   10.7837   -3.9200   20.0530 C   0  0  0  0  0  0  0  0  0  0  0  0
    1.8244  -10.7200   18.1323 C   0  0  0  0  0  0  0  0  0  0  0  0
    5.6605   -7.4546   15.6303 C   0  0  0  0  0  0  0  0  0  0  0  0
  1 19  2  0
  2 24  4  0
  2 28  4  0
  3 19  1  0
  4 26  4  0
  4 33  4  0
  5 20  4  0
  5 27  4  0
  6 18  4  0
  6 21  4  0
  7 13  4  0
  7 25  4  0
  8 16  4  0
  8 17  4  0
  9 14  4  0
  9 17  4  0
 10 14  4  0
 10 32  4  0
 11 20  4  0
 11 29  4  0
 11 30  1  0
 12 18  4  0
 12 23  4  0
 12 33  4  0
 13 14  4  0
 13 24  4  0
 15 28  4  0
 15 34  4  0
 16 21  1  0
 16 34  4  0
 17 28  4  0
 19 32  1  0
 21 23  4  0
 22 27  4  0
 22 29  4  0
 23 31  4  0
 25 32  4  0
 26 31  4  0
 30 33  1  0
M  END
$$$$

 Created by Python create_sdf_string function

 34 67  0  0  0  0  0  0  0  0999 V2000
   11.3113   -2.6447   21.9052 O   0  0  0  0  0  0  0  0  0  0  0  0
    8.5241   -5.5358   15.7482 F   0  0  0  0  0  0  0  0  0  0  0  0
   11.0795   -4.7768   22.1979 O   0  0  0  0  0  0  0  0  0  0  0  0
    0.5057  -10.2594   16.8250 C   0  0  0  0  0  0  0  0  0  0  0  0
    0.7906  -11.3411   22.8734 C   0  0  0  0  0  0  0  0  0  0  0  0
    5.2952   -9.8235   18.5426 F   0  0  0  0  0  0  0  0  0  0  0  0
   10.5855   -3.2999   17.5612 C   0  0  0  0  0  0  0  0  0  0  0  0
    6.6459   -7.3530   17.9759 C   0  0  0  0  0  0  0  0  0  0  0  0
    9.9575   -4.6975   19.9131 C   0  0  0  0  0  0  0  0  0  0  0  0
    0.7895  -11.3644   20.0195 C   0  0  0  0  0  0  0  0  0  0  0  0
    3.1407  -10.7197   18.0397 C   0  0  0  0  0  0  0  0  0  0  0  0
    9.7744   -4.1197   17.3320 C   0  0  0  0  0  0  0  0  0  0  0  0
    6.7045   -6.6165   15.5184 C   0  0  0  0  0  0  0  0  0  0  0  0
    5.4034   -7.4002   16.6473 C   0  0  0  0  0  0  0  0  0  0  0  0
    7.6105   -6.6102   17.7055 C   0  0  0  0  0  0  0  0  0  0  0  0
    4.1756  -10.4019   18.6409 C   0  0  0  0  0  0  0  0  0  0  0  0
    1.2098  -11.6735   21.5849 C   0  0  0  0  0  0  0  0  0  0  0  0
    4.7016   -9.0762   17.5221 C   0  0  0  0  0  0  0  0  0  0  0  0
   -1.5143  -10.6769   21.5124 C   0  0  0  0  0  0  0  0  0  0  0  0
    3.3749   -9.5108   17.2814 C   0  0  0  0  0  0  0  0  0  0  0  0
    9.2691   -4.5267   16.0751 C   0  0  0  0  0  0  0  0  0  0  0  0
   11.2344   -3.0437   19.0204 C   0  0  0  0  0  0  0  0  0  0  0  0
    1.2122   -9.4892   16.3129 C   0  0  0  0  0  0  0  0  0  0  0  0
   -0.7439  -11.0081   22.4894 C   0  0  0  0  0  0  0  0  0  0  0  0
    7.0376   -5.8164   16.0843 C   0  0  0  0  0  0  0  0  0  0  0  0
   -0.6203  -11.0088   20.1166 Br  0  0  0  0  0  0  0  0  0  0  0  0
    1.4139  -11.7907   18.8850 C   0  0  0  0  0  0  0  0  0  0  0  0
    2.1987   -8.7644   16.1688 C   0  0  0  0  0  0  0  0  0  0  0  0
   10.8942   -3.9861   20.1636 C   0  0  0  0  0  0  0  0  0  0  0  0
    1.9990  -10.6672   18.1659 C   0  0  0  0  0  0  0  0  0  0  0  0
    8.4206   -6.2338   18.2792 He  0  0  0  0  0  0  0  0  0  0  0  0
    9.3233   -5.0045   18.6014 He  0  0  0  0  0  0  0  0  0  0  0  0
   11.1256   -3.5053   21.1510 He  0  0  0  0  0  0  0  0  0  0  0  0
    5.8814   -7.2733   15.6615 He  0  0  0  0  0  0  0  0  0  0  0  0
  1  3  3  0
  1  8  3  0
  1 15  3  0
  1 17  4  0
  1 18  4  0
  2  9  1  0
  2 21  4  0
  2 25  4  0
  3  5  1  0
  3 23  3  0
  3 25  2  0
  4  7  4  0
  4 12  2  0
  4 13  4  0
  4 16  4  0
  4 24  2  0
  4 25  3  0
  4 26  1  0
  4 27  4  0
  4 30  4  0
  5  8  4  0
  5 17  4  0
  5 24  4  0
  6  8  2  0
  6 10  2  0
  6 16  4  0
  6 17  2  0
  6 18  4  0
  6 19  1  0
  7 12  4  0
  7 13  4  0
  7 22  4  0
  8 11  2  0
  8 14  4  0
  8 15  4  0
  8 27  3  0
  9 29  4  0
 10 16  2  0
 10 17  4  0
 10 19  2  0
 10 26  4  0
 10 27  1  0
 11 16  4  0
 11 17  4  0
 11 20  4  0
 11 30  4  0
 12 13  4  0
 12 21  4  0
 13 22  2  0
 13 26  2  0
 14 18  3  0
 14 30  3  0
 15 16  2  0
 15 17  1  0
 15 25  4  0
 16 21  1  0
 18 19  4  0
 18 20  4  0
 19 24  4  0
 19 26  4  0
 20 28  3  0
 21 23  1  0
 22 29  4  0
 23 26  2  0
 23 27  2  0
 23 28  4  0
 27 30  1  0
M  END
$$$$

 Created by Python create_sdf_string function

 34 39  0  0  0  0  0  0  0  0999 V2000
   11.4861   -2.5061   21.8178 O   0  0  0  0  0  0  0  0  0  0  0  0
    8.3730   -5.2097   15.7047 N   0  0  0  0  0  0  0  0  0  0  0  0
   11.0922   -4.6294   22.2160 O   0  0  0  0  0  0  0  0  0  0  0  0
    0.8232  -10.3833   17.1234 C   0  0  0  0  0  0  0  0  0  0  0  0
    0.6130  -11.4083   22.6175 C   0  0  0  0  0  0  0  0  0  0  0  0
    5.1281   -9.8451   18.3960 N   0  0  0  0  0  0  0  0  0  0  0  0
   10.7579   -3.2751   17.6671 C   0  0  0  0  0  0  0  0  0  0  0  0
    6.5214   -7.3779   17.8669 C   0  0  0  0  0  0  0  0  0  0  0  0
    8.3718   -5.9922   18.3211 O   0  0  0  0  0  0  0  0  0  0  0  0
    9.9319   -4.9120   19.7495 C   0  0  0  0  0  0  0  0  0  0  0  0
    0.6562  -11.4785   20.2213 C   0  0  0  0  0  0  0  0  0  0  0  0
    3.0405  -10.3534   18.0220 C   0  0  0  0  0  0  0  0  0  0  0  0
    9.8389   -4.3059   17.4372 C   0  0  0  0  0  0  0  0  0  0  0  0
    9.4113   -5.0810   18.4941 C   0  0  0  0  0  0  0  0  0  0  0  0
    6.5754   -6.5731   15.2789 C   0  0  0  0  0  0  0  0  0  0  0  0
    5.6373   -7.9109   16.9807 C   0  0  0  0  0  0  0  0  0  0  0  0
    7.5242   -6.5004   17.4761 C   0  0  0  0  0  0  0  0  0  0  0  0
    4.1604  -10.7077   18.7147 N   0  0  0  0  0  0  0  0  0  0  0  0
   11.1486   -3.6015   21.4219 C   0  0  0  0  0  0  0  0  0  0  0  0
    1.2678  -11.6631   21.4439 C   0  0  0  0  0  0  0  0  0  0  0  0
    4.7484   -8.9507   17.4314 C   0  0  0  0  0  0  0  0  0  0  0  0
   -1.3246  -10.7523   21.4103 C   0  0  0  0  0  0  0  0  0  0  0  0
    3.3649   -9.3191   17.1394 C   0  0  0  0  0  0  0  0  0  0  0  0
    9.3610   -4.4494   16.1541 C   0  0  0  0  0  0  0  0  0  0  0  0
   11.1390   -3.0115   18.9917 C   0  0  0  0  0  0  0  0  0  0  0  0
    1.1760   -9.3889   16.2041 C   0  0  0  0  0  0  0  0  0  0  0  0
   -0.6714  -10.9358   22.6037 C   0  0  0  0  0  0  0  0  0  0  0  0
    7.5510   -6.0996   16.1437 C   0  0  0  0  0  0  0  0  0  0  0  0
   -0.6470  -11.0101   20.2206 C   0  0  0  0  0  0  0  0  0  0  0  0
    1.3715  -11.8484   18.9919 C   0  0  0  0  0  0  0  0  0  0  0  0
    2.4424   -8.8637   16.2169 C   0  0  0  0  0  0  0  0  0  0  0  0
   10.7527   -3.8308   20.0216 C   0  0  0  0  0  0  0  0  0  0  0  0
    1.7551  -10.8504   18.0511 C   0  0  0  0  0  0  0  0  0  0  0  0
    5.6243   -7.4502   15.7335 C   0  0  0  0  0  0  0  0  0  0  0  0
  1 19  2  0
  2 24  4  0
  2 28  4  0
  3 19  1  0
  4 26  4  0
  4 33  4  0
  5 20  4  0
  5 27  4  0
  6 18  4  0
  6 21  4  0
  7 13  4  0
  7 25  4  0
  8 16  4  0
  8 17  4  0
  9 14  4  0
  9 17  4  0
 10 14  4  0
 10 32  4  0
 11 20  4  0
 11 29  4  0
 11 30  1  0
 12 18  4  0
 12 23  4  0
 12 33  4  0
 13 14  4  0
 13 24  4  0
 15 28  4  0
 15 34  4  0
 16 21  1  0
 16 34  4  0
 17 28  4  0
 19 32  1  0
 21 23  4  0
 22 27  4  0
 22 29  4  0
 23 31  4  0
 25 32  4  0
 26 31  4  0
 30 33  1  0
M  END
$$$$

 Created by Python create_sdf_string function

 34 58  0  0  0  0  0  0  0  0999 V2000
   11.5188   -2.6641   21.7713 O   0  0  0  0  0  0  0  0  0  0  0  0
    8.5449   -5.1507   15.6442 N   0  0  0  0  0  0  0  0  0  0  0  0
   11.2064   -4.5242   22.1276 O   0  0  0  0  0  0  0  0  0  0  0  0
    0.6873  -11.6549   22.7530 C   0  0  0  0  0  0  0  0  0  0  0  0
   10.7278   -2.9908   17.5033 C   0  0  0  0  0  0  0  0  0  0  0  0
    6.4536   -7.0415   17.7837 C   0  0  0  0  0  0  0  0  0  0  0  0
    8.6402   -6.2047   18.5005 O   0  0  0  0  0  0  0  0  0  0  0  0
    0.6143  -11.5634   20.0835 C   0  0  0  0  0  0  0  0  0  0  0  0
    3.3747  -10.2748   18.1058 C   0  0  0  0  0  0  0  0  0  0  0  0
   10.0739   -4.2687   17.4290 C   0  0  0  0  0  0  0  0  0  0  0  0
    9.4194   -5.1605   18.3910 C   0  0  0  0  0  0  0  0  0  0  0  0
    6.5105   -6.7895   14.9039 C   0  0  0  0  0  0  0  0  0  0  0  0
    5.7029   -7.6921   16.8937 C   0  0  0  0  0  0  0  0  0  0  0  0
    7.4916   -6.6734   17.4920 C   0  0  0  0  0  0  0  0  0  0  0  0
    4.3808  -10.7343   18.7311 N   0  0  0  0  0  0  0  0  0  0  0  0
   11.0528   -3.9498   21.3652 C   0  0  0  0  0  0  0  0  0  0  0  0
    1.4533  -11.8609   21.5984 C   0  0  0  0  0  0  0  0  0  0  0  0
    4.5657   -9.0027   17.7305 C   0  0  0  0  0  0  0  0  0  0  0  0
   -1.5013  -10.7237   21.4190 C   0  0  0  0  0  0  0  0  0  0  0  0
    3.3433   -9.0820   17.3306 C   0  0  0  0  0  0  0  0  0  0  0  0
    9.4632   -4.5079   16.1706 C   0  0  0  0  0  0  0  0  0  0  0  0
   10.8236   -3.0639   19.0466 C   0  0  0  0  0  0  0  0  0  0  0  0
   -0.7780  -11.0220   22.5105 C   0  0  0  0  0  0  0  0  0  0  0  0
    7.7262   -6.4341   16.0911 C   0  0  0  0  0  0  0  0  0  0  0  0
   -0.6721  -10.9684   20.0969 C   0  0  0  0  0  0  0  0  0  0  0  0
    1.3039  -12.0978   18.9148 C   0  0  0  0  0  0  0  0  0  0  0  0
    2.6968   -9.0561   16.1211 C   0  0  0  0  0  0  0  0  0  0  0  0
   10.5541   -3.6659   20.0043 C   0  0  0  0  0  0  0  0  0  0  0  0
    1.7577  -10.8907   17.8276 C   0  0  0  0  0  0  0  0  0  0  0  0
    0.6279  -10.2260   17.4521 He  0  0  0  0  0  0  0  0  0  0  0  0
    5.3688   -9.8393   18.1196 He  0  0  0  0  0  0  0  0  0  0  0  0
   10.1601   -4.7185   19.5853 He  0  0  0  0  0  0  0  0  0  0  0  0
    0.8604   -9.2324   16.1226 He  0  0  0  0  0  0  0  0  0  0  0  0
    5.7714   -7.6622   15.7821 He  0  0  0  0  0  0  0  0  0  0  0  0
  1  3  3  0
  1 16  2  0
  2  9  3  0
  2 21  4  0
  2 24  4  0
  3  9  1  0
  3 11  4  0
  3 16  1  0
  4 17  4  0
  5  6  1  0
  5 10  4  0
  5 12  1  0
  5 22  4  0
  6  9  3  0
  6 13  4  0
  6 14  4  0
  6 20  3  0
  7  8  2  0
  7 11  4  0
  7 14  4  0
  7 17  4  0
  7 19  4  0
  7 24  3  0
  7 28  2  0
  8 10  1  0
  8 17  4  0
  8 18  3  0
  8 25  4  0
  8 26  1  0
  9 14  3  0
  9 15  4  0
  9 20  4  0
  9 21  4  0
  9 28  3  0
  9 29  4  0
 10 11  4  0
 10 16  4  0
 10 20  4  0
 10 21  4  0
 12 24  4  0
 13 16  4  0
 13 18  1  0
 13 19  3  0
 13 21  1  0
 14 24  4  0
 15 18  1  0
 15 20  4  0
 16 28  1  0
 17 27  1  0
 18 20  3  0
 18 26  4  0
 19 20  1  0
 19 23  4  0
 19 25  4  0
 20 27  4  0
 22 28  4  0
 24 26  2  0
 26 29  1  0
M  END
$$$$

 Created by Python create_sdf_string function

 34 39  0  0  0  0  0  0  0  0999 V2000
   11.5557   -2.5283   21.7472 O   0  0  0  0  0  0  0  0  0  0  0  0
    8.5377   -5.3314   15.6254 N   0  0  0  0  0  0  0  0  0  0  0  0
   11.0707   -4.6229   22.1770 O   0  0  0  0  0  0  0  0  0  0  0  0
    0.8316  -10.3147   17.1828 N   0  0  0  0  0  0  0  0  0  0  0  0
    0.5841  -11.5728   22.6045 C   0  0  0  0  0  0  0  0  0  0  0  0
    5.1864   -9.8752   18.3817 N   0  0  0  0  0  0  0  0  0  0  0  0
   10.6989   -3.2008   17.6482 C   0  0  0  0  0  0  0  0  0  0  0  0
    6.6036   -7.3900   17.8398 C   0  0  0  0  0  0  0  0  0  0  0  0
    8.5703   -6.1221   18.2428 O   0  0  0  0  0  0  0  0  0  0  0  0
    9.9825   -4.9545   19.6844 C   0  0  0  0  0  0  0  0  0  0  0  0
    0.6608  -11.5609   20.1936 C   0  0  0  0  0  0  0  0  0  0  0  0
    3.1034  -10.3469   17.9995 C   0  0  0  0  0  0  0  0  0  0  0  0
    9.8675   -4.3108   17.3867 C   0  0  0  0  0  0  0  0  0  0  0  0
    9.4763   -5.1373   18.4128 C   0  0  0  0  0  0  0  0  0  0  0  0
    6.7290   -6.7252   15.2363 C   0  0  0  0  0  0  0  0  0  0  0  0
    5.6870   -7.9438   16.9644 C   0  0  0  0  0  0  0  0  0  0  0  0
    7.6090   -6.5283   17.4211 C   0  0  0  0  0  0  0  0  0  0  0  0
    4.1848  -10.7179   18.6929 N   0  0  0  0  0  0  0  0  0  0  0  0
   11.1557   -3.6283   21.3699 C   0  0  0  0  0  0  0  0  0  0  0  0
    1.2375  -11.8290   21.4138 C   0  0  0  0  0  0  0  0  0  0  0  0
    4.7942   -8.9574   17.4069 C   0  0  0  0  0  0  0  0  0  0  0  0
   -1.3171  -10.7742   21.3914 C   0  0  0  0  0  0  0  0  0  0  0  0
    3.4150   -9.3191   17.1349 C   0  0  0  0  0  0  0  0  0  0  0  0
    9.4281   -4.5121   16.1006 C   0  0  0  0  0  0  0  0  0  0  0  0
   11.0416   -2.9261   18.9917 C   0  0  0  0  0  0  0  0  0  0  0  0
    1.1999   -9.3138   16.2942 C   0  0  0  0  0  0  0  0  0  0  0  0
   -0.6860  -11.0397   22.5799 C   0  0  0  0  0  0  0  0  0  0  0  0
    7.6528   -6.1594   16.1038 C   0  0  0  0  0  0  0  0  0  0  0  0
   -0.6327  -11.0167   20.1927 C   0  0  0  0  0  0  0  0  0  0  0  0
    1.4050  -11.8869   18.9643 C   0  0  0  0  0  0  0  0  0  0  0  0
    2.4683   -8.7820   16.3012 C   0  0  0  0  0  0  0  0  0  0  0  0
   10.7400   -3.8440   19.9705 C   0  0  0  0  0  0  0  0  0  0  0  0
    1.7618  -10.8158   18.0714 C   0  0  0  0  0  0  0  0  0  0  0  0
    5.7175   -7.5373   15.6983 C   0  0  0  0  0  0  0  0  0  0  0  0
  1 19  2  0
  2 24  4  0
  2 28  4  0
  3 19  1  0
  4 26  4  0
  4 33  4  0
  5 20  4  0
  5 27  4  0
  6 18  4  0
  6 21  4  0
  7 13  4  0
  7 25  4  0
  8 16  4  0
  8 17  4  0
  9 14  4  0
  9 17  4  0
 10 14  4  0
 10 32  4  0
 11 20  4  0
 11 29  4  0
 11 30  1  0
 12 18  4  0
 12 23  4  0
 12 33  4  0
 13 14  4  0
 13 24  4  0
 15 28  4  0
 15 34  4  0
 16 21  1  0
 16 34  4  0
 17 28  4  0
 19 32  1  0
 21 23  4  0
 22 27  4  0
 22 29  4  0
 23 31  4  0
 25 32  4  0
 26 31  4  0
 30 33  1  0
M  END
$$$$

 Created by Python create_sdf_string function

 34 52  0  0  0  0  0  0  0  0999 V2000
   11.5387   -2.6061   21.8181 S   0  0  0  0  0  0  0  0  0  0  0  0
    8.6397   -5.3071   15.3727 O   0  0  0  0  0  0  0  0  0  0  0  0
   11.3612   -4.5320   22.2954 O   0  0  0  0  0  0  0  0  0  0  0  0
    5.5409   -9.5975   18.2064 N   0  0  0  0  0  0  0  0  0  0  0  0
   10.7313   -3.1769   17.7085 C   0  0  0  0  0  0  0  0  0  0  0  0
    6.4719   -7.4995   17.8993 C   0  0  0  0  0  0  0  0  0  0  0  0
    8.7175   -6.1594   18.1460 O   0  0  0  0  0  0  0  0  0  0  0  0
    9.9669   -4.9790   19.7357 C   0  0  0  0  0  0  0  0  0  0  0  0
    0.4130  -11.4933   20.1516 C   0  0  0  0  0  0  0  0  0  0  0  0
    2.9617  -10.0014   17.9414 C   0  0  0  0  0  0  0  0  0  0  0  0
   10.0308   -4.3872   17.4217 C   0  0  0  0  0  0  0  0  0  0  0  0
    9.7486   -5.0089   18.2129 C   0  0  0  0  0  0  0  0  0  0  0  0
    7.0253   -6.4056   15.3435 C   0  0  0  0  0  0  0  0  0  0  0  0
    5.8236   -7.9760   16.9923 C   0  0  0  0  0  0  0  0  0  0  0  0
    7.6324   -6.4874   17.5827 C   0  0  0  0  0  0  0  0  0  0  0  0
    4.3440  -10.6900   18.7986 N   0  0  0  0  0  0  0  0  0  0  0  0
   11.2791   -3.7040   21.2994 C   0  0  0  0  0  0  0  0  0  0  0  0
    1.3163  -11.7265   21.4618 C   0  0  0  0  0  0  0  0  0  0  0  0
    4.7474   -8.8391   17.6826 C   0  0  0  0  0  0  0  0  0  0  0  0
   -1.2879  -10.4584   21.4051 C   0  0  0  0  0  0  0  0  0  0  0  0
    3.4415   -9.2242   17.3276 C   0  0  0  0  0  0  0  0  0  0  0  0
   11.0828   -2.9536   19.1911 Cl  0  0  0  0  0  0  0  0  0  0  0  0
    1.0371   -9.3433   16.3971 C   0  0  0  0  0  0  0  0  0  0  0  0
   -0.6923  -10.9162   22.5403 C   0  0  0  0  0  0  0  0  0  0  0  0
   -0.6929  -10.8324   20.1052 C   0  0  0  0  0  0  0  0  0  0  0  0
    1.3101  -11.9226   18.7575 C   0  0  0  0  0  0  0  0  0  0  0  0
    2.2635   -9.1690   16.1729 C   0  0  0  0  0  0  0  0  0  0  0  0
   10.6961   -3.8647   20.0802 C   0  0  0  0  0  0  0  0  0  0  0  0
    1.6745  -10.9906   17.9331 C   0  0  0  0  0  0  0  0  0  0  0  0
    5.5350   -7.4183   15.6507 C   0  0  0  0  0  0  0  0  0  0  0  0
    0.8775  -10.3991   17.0261 He  0  0  0  0  0  0  0  0  0  0  0  0
    0.3407  -11.3906   22.5452 He  0  0  0  0  0  0  0  0  0  0  0  0
    9.6009   -4.4497   16.1257 He  0  0  0  0  0  0  0  0  0  0  0  0
    8.1415   -5.9976   16.1810 He  0  0  0  0  0  0  0  0  0  0  0  0
  1 17  3  0
  2 24  1  0
  3 17  1  0
  4 16  4  0
  5 11  4  0
  5 14  4  0
  5 22  4  0
  5 26  2  0
  6  7  2  0
  6  8  3  0
  6 14  4  0
  6 15  4  0
  7 13  1  0
  7 14  2  0
  7 15  4  0
  8 10  1  0
  8 12  4  0
  8 24  2  0
  8 27  4  0
  8 28  4  0
  8 30  1  0
  9 10  4  0
  9 14  1  0
  9 18  4  0
  9 25  4  0
  9 26  1  0
  9 28  4  0
 10 12  3  0
 10 16  4  0
 10 21  4  0
 10 29  4  0
 11 12  4  0
 13 30  4  0
 14 19  1  0
 14 24  3  0
 14 30  4  0
 15 17  4  0
 16 24  2  0
 17 18  3  0
 17 28  1  0
 18 22  3  0
 19 21  4  0
 20 24  4  0
 20 25  4  0
 21 22  2  0
 21 23  2  0
 21 27  4  0
 22 28  4  0
 23 24  2  0
 23 25  3  0
 23 27  4  0
 26 29  1  0
M  END
$$$$

 Created by Python create_sdf_string function

 34 39  0  0  0  0  0  0  0  0999 V2000
   11.5774   -2.4947   21.8069 O   0  0  0  0  0  0  0  0  0  0  0  0
    8.6525   -5.2708   15.6751 C   0  0  0  0  0  0  0  0  0  0  0  0
   11.2314   -4.6210   22.2481 O   0  0  0  0  0  0  0  0  0  0  0  0
    0.8288  -10.3622   17.1067 N   0  0  0  0  0  0  0  0  0  0  0  0
    0.5100  -11.4501   22.5296 C   0  0  0  0  0  0  0  0  0  0  0  0
    5.1660   -9.7783   18.4067 N   0  0  0  0  0  0  0  0  0  0  0  0
   10.7987   -3.2075   17.7287 C   0  0  0  0  0  0  0  0  0  0  0  0
    6.7398   -7.4546   17.8261 C   0  0  0  0  0  0  0  0  0  0  0  0
    8.6790   -6.1618   18.2630 O   0  0  0  0  0  0  0  0  0  0  0  0
   10.0776   -4.9911   19.7126 C   0  0  0  0  0  0  0  0  0  0  0  0
    0.5964  -11.4635   20.1382 C   0  0  0  0  0  0  0  0  0  0  0  0
    3.0665  -10.3244   17.9860 C   0  0  0  0  0  0  0  0  0  0  0  0
    9.9872   -4.2917   17.4260 C   0  0  0  0  0  0  0  0  0  0  0  0
    9.5648   -5.1584   18.4201 C   0  0  0  0  0  0  0  0  0  0  0  0
    6.7820   -6.5294   15.2856 C   0  0  0  0  0  0  0  0  0  0  0  0
    5.7536   -7.8987   16.9866 C   0  0  0  0  0  0  0  0  0  0  0  0
    7.7500   -6.5590   17.4338 C   0  0  0  0  0  0  0  0  0  0  0  0
    4.1498  -10.6322   18.7215 N   0  0  0  0  0  0  0  0  0  0  0  0
   11.2339   -3.6359   21.4432 C   0  0  0  0  0  0  0  0  0  0  0  0
    1.1364  -11.7607   21.3639 C   0  0  0  0  0  0  0  0  0  0  0  0
    4.8127   -8.9164   17.4294 C   0  0  0  0  0  0  0  0  0  0  0  0
   -1.3208  -10.5465   21.3200 C   0  0  0  0  0  0  0  0  0  0  0  0
    3.4303   -9.2843   17.1215 C   0  0  0  0  0  0  0  0  0  0  0  0
    9.6200   -4.4469   16.0892 C   0  0  0  0  0  0  0  0  0  0  0  0
   11.1200   -2.9343   19.0802 C   0  0  0  0  0  0  0  0  0  0  0  0
    1.2276   -9.3942   16.1990 C   0  0  0  0  0  0  0  0  0  0  0  0
   -0.7084  -10.8372   22.5196 C   0  0  0  0  0  0  0  0  0  0  0  0
    7.7832   -6.0786   16.1663 C   0  0  0  0  0  0  0  0  0  0  0  0
   -0.6717  -10.8400   20.1418 C   0  0  0  0  0  0  0  0  0  0  0  0
    1.3373  -11.8560   18.9347 C   0  0  0  0  0  0  0  0  0  0  0  0
    2.4909   -8.8095   16.3100 C   0  0  0  0  0  0  0  0  0  0  0  0
   10.8133   -3.8688   20.0392 C   0  0  0  0  0  0  0  0  0  0  0  0
    1.7251  -10.8201   18.0191 C   0  0  0  0  0  0  0  0  0  0  0  0
    5.7788   -7.3911   15.7513 C   0  0  0  0  0  0  0  0  0  0  0  0
  1 19  2  0
  2 24  4  0
  2 28  4  0
  3 19  1  0
  4 26  4  0
  4 33  4  0
  5 20  4  0
  5 27  4  0
  6 18  4  0
  6 21  4  0
  7 13  4  0
  7 25  4  0
  8 16  4  0
  8 17  4  0
  9 14  4  0
  9 17  4  0
 10 14  4  0
 10 32  4  0
 11 20  4  0
 11 29  4  0
 11 30  1  0
 12 18  4  0
 12 23  4  0
 12 33  4  0
 13 14  4  0
 13 24  4  0
 15 28  4  0
 15 34  4  0
 16 21  1  0
 16 34  4  0
 17 28  4  0
 19 32  1  0
 21 23  4  0
 22 27  4  0
 22 29  4  0
 23 31  4  0
 25 32  4  0
 26 31  4  0
 30 33  1  0
M  END
$$$$

 Created by Python create_sdf_string function

 34 74  0  0  0  0  0  0  0  0999 V2000
   11.7053   -2.7020   21.7857 O   0  0  0  0  0  0  0  0  0  0  0  0
    8.6570   -5.3104   15.6715 C   0  0  0  0  0  0  0  0  0  0  0  0
   11.1388   -4.5659   22.0867 O   0  0  0  0  0  0  0  0  0  0  0  0
    0.7424  -10.1131   16.8934 N   0  0  0  0  0  0  0  0  0  0  0  0
    0.2532  -11.6398   22.5156 C   0  0  0  0  0  0  0  0  0  0  0  0
    5.2421   -9.7926   18.4857 N   0  0  0  0  0  0  0  0  0  0  0  0
   10.8598   -3.1546   17.8306 C   0  0  0  0  0  0  0  0  0  0  0  0
    6.2537   -7.4090   17.9200 C   0  0  0  0  0  0  0  0  0  0  0  0
    8.8494   -6.4789   18.1022 O   0  0  0  0  0  0  0  0  0  0  0  0
    0.5890  -11.3260   20.3707 C   0  0  0  0  0  0  0  0  0  0  0  0
    2.8620  -10.2755   17.9217 C   0  0  0  0  0  0  0  0  0  0  0  0
   10.0508   -4.1868   17.7321 C   0  0  0  0  0  0  0  0  0  0  0  0
    9.4880   -5.0844   18.4221 C   0  0  0  0  0  0  0  0  0  0  0  0
    6.8567   -6.9679   15.3852 C   0  0  0  0  0  0  0  0  0  0  0  0
    5.5248   -7.7482   17.3509 C   0  0  0  0  0  0  0  0  0  0  0  0
    7.8416   -6.4651   17.3613 C   0  0  0  0  0  0  0  0  0  0  0  0
    4.1316  -10.5338   18.8912 N   0  0  0  0  0  0  0  0  0  0  0  0
   11.4943   -3.6345   21.4488 C   0  0  0  0  0  0  0  0  0  0  0  0
    1.0648  -11.9473   21.6485 C   0  0  0  0  0  0  0  0  0  0  0  0
    5.0974   -8.6738   17.4115 C   0  0  0  0  0  0  0  0  0  0  0  0
   -1.3151  -10.5290   21.2588 C   0  0  0  0  0  0  0  0  0  0  0  0
    3.2858   -9.3762   17.1774 C   0  0  0  0  0  0  0  0  0  0  0  0
    9.5599   -4.4826   16.0217 O   0  0  0  0  0  0  0  0  0  0  0  0
   11.1677   -2.9006   18.9840 C   0  0  0  0  0  0  0  0  0  0  0  0
    0.9464   -9.6975   15.8547 C   0  0  0  0  0  0  0  0  0  0  0  0
   -0.5903  -10.8725   22.4430 C   0  0  0  0  0  0  0  0  0  0  0  0
    7.9956   -6.1375   16.1018 C   0  0  0  0  0  0  0  0  0  0  0  0
   -0.7850  -10.7921   20.2403 C   0  0  0  0  0  0  0  0  0  0  0  0
    1.3955  -11.7515   18.8047 C   0  0  0  0  0  0  0  0  0  0  0  0
    2.7208   -8.7347   16.4840 C   0  0  0  0  0  0  0  0  0  0  0  0
   10.7368   -3.8435   20.0074 C   0  0  0  0  0  0  0  0  0  0  0  0
    1.7896  -10.6673   18.1858 Se  0  0  0  0  0  0  0  0  0  0  0  0
    5.6958   -7.4241   15.7466 C   0  0  0  0  0  0  0  0  0  0  0  0
    9.8982   -5.0106   19.6749 He  0  0  0  0  0  0  0  0  0  0  0  0
  1  8  2  0
  1 11  1  0
  1 18  2  0
  2 13  3  0
  2 26  3  0
  2 31  1  0
  3 17  3  0
  3 18  1  0
  4  9  1  0
  4 11  2  0
  4 25  4  0
  4 26  4  0
  4 32  4  0
  5 19  4  0
  5 21  2  0
  5 26  4  0
  5 27  2  0
  6 12  1  0
  6 17  4  0
  6 20  2  0
  7  8  2  0
  7 12  4  0
  7 17  1  0
  7 21  4  0
  7 24  4  0
  8  9  2  0
  8 15  4  0
  8 16  4  0
  8 19  2  0
  8 26  2  0
  8 27  3  0
  8 32  1  0
  9 13  4  0
  9 16  4  0
  9 31  1  0
 10 15  2  0
 10 17  2  0
 10 19  4  0
 10 29  1  0
 11 17  4  0
 11 22  4  0
 11 28  1  0
 11 32  4  0
 11 33  4  0
 12 13  4  0
 12 23  4  0
 12 32  3  0
 13 20  4  0
 14 32  4  0
 14 33  4  0
 15 19  4  0
 15 20  1  0
 15 32  2  0
 16 26  3  0
 16 27  4  0
 16 33  4  0
 17 18  3  0
 18 19  2  0
 18 30  2  0
 18 31  1  0
 19 33  2  0
 20 22  4  0
 20 24  4  0
 21 26  4  0
 21 28  4  0
 22 30  4  0
 23 24  2  0
 23 32  1  0
 24 25  3  0
 24 30  2  0
 25 28  1  0
 25 30  4  0
 28 30  3  0
 29 32  1  0
M  END
$$$$

 Created by Python create_sdf_string function

 34 39  0  0  0  0  0  0  0  0999 V2000
   11.7935   -2.5924   21.7590 O   0  0  0  0  0  0  0  0  0  0  0  0
    8.6728   -5.3142   15.6764 C   0  0  0  0  0  0  0  0  0  0  0  0
   11.0998   -4.6322   22.2058 O   0  0  0  0  0  0  0  0  0  0  0  0
    0.8326  -10.3182   17.0779 N   0  0  0  0  0  0  0  0  0  0  0  0
    0.3909  -11.5980   22.5812 C   0  0  0  0  0  0  0  0  0  0  0  0
    5.0610   -9.7926   18.5158 N   0  0  0  0  0  0  0  0  0  0  0  0
   10.7733   -3.2103   17.6912 C   0  0  0  0  0  0  0  0  0  0  0  0
    6.6650   -7.4457   17.8731 C   0  0  0  0  0  0  0  0  0  0  0  0
    8.6360   -6.1520   18.2645 O   0  0  0  0  0  0  0  0  0  0  0  0
   10.0888   -4.9819   19.7224 C   0  0  0  0  0  0  0  0  0  0  0  0
    0.5765  -11.4394   20.1821 C   0  0  0  0  0  0  0  0  0  0  0  0
    3.0088  -10.2487   18.0252 C   0  0  0  0  0  0  0  0  0  0  0  0
    9.9699   -4.3080   17.4276 C   0  0  0  0  0  0  0  0  0  0  0  0
    9.5692   -5.1652   18.4201 C   0  0  0  0  0  0  0  0  0  0  0  0
    6.7992   -6.6768   15.2889 C   0  0  0  0  0  0  0  0  0  0  0  0
    5.7000   -7.9351   17.0427 C   0  0  0  0  0  0  0  0  0  0  0  0
    7.7097   -6.5842   17.4555 C   0  0  0  0  0  0  0  0  0  0  0  0
    4.0539  -10.6145   18.7884 N   0  0  0  0  0  0  0  0  0  0  0  0
   11.2660   -3.6434   21.3917 C   0  0  0  0  0  0  0  0  0  0  0  0
    1.0530  -11.8622   21.4131 C   0  0  0  0  0  0  0  0  0  0  0  0
    4.7460   -8.9112   17.5251 C   0  0  0  0  0  0  0  0  0  0  0  0
   -1.3234  -10.4887   21.3328 C   0  0  0  0  0  0  0  0  0  0  0  0
    3.3944   -9.2476   17.1486 C   0  0  0  0  0  0  0  0  0  0  0  0
    9.5601   -4.4553   16.1353 C   0  0  0  0  0  0  0  0  0  0  0  0
   11.1531   -2.9253   19.0412 C   0  0  0  0  0  0  0  0  0  0  0  0
    1.2549   -9.3862   16.1234 C   0  0  0  0  0  0  0  0  0  0  0  0
   -0.7987  -10.9230   22.5366 C   0  0  0  0  0  0  0  0  0  0  0  0
    7.7705   -6.1796   16.1616 C   0  0  0  0  0  0  0  0  0  0  0  0
   -0.6417  -10.7300   20.1795 C   0  0  0  0  0  0  0  0  0  0  0  0
    1.3256  -11.7458   18.9477 C   0  0  0  0  0  0  0  0  0  0  0  0
    2.5665   -8.8555   16.1612 C   0  0  0  0  0  0  0  0  0  0  0  0
   10.8350   -3.8530   20.0087 C   0  0  0  0  0  0  0  0  0  0  0  0
    1.7269  -10.7252   18.0215 C   0  0  0  0  0  0  0  0  0  0  0  0
    5.7820   -7.4972   15.7633 C   0  0  0  0  0  0  0  0  0  0  0  0
  1 19  2  0
  2 24  4  0
  2 28  4  0
  3 19  1  0
  4 26  4  0
  4 33  4  0
  5 20  4  0
  5 27  4  0
  6 18  4  0
  6 21  4  0
  7 13  4  0
  7 25  4  0
  8 16  4  0
  8 17  4  0
  9 14  4  0
  9 17  4  0
 10 14  4  0
 10 32  4  0
 11 20  4  0
 11 29  4  0
 11 30  1  0
 12 18  4  0
 12 23  4  0
 12 33  4  0
 13 14  4  0
 13 24  4  0
 15 28  4  0
 15 34  4  0
 16 21  1  0
 16 34  4  0
 17 28  4  0
 19 32  1  0
 21 23  4  0
 22 27  4  0
 22 29  4  0
 23 31  4  0
 25 32  4  0
 26 31  4  0
 30 33  1  0
M  END
$$$$

 Created by Python create_sdf_string function

 34 55  0  0  0  0  0  0  0  0999 V2000
   11.6968   -2.5884   21.6925 O   0  0  0  0  0  0  0  0  0  0  0  0
    8.5551   -5.2979   15.7009 C   0  0  0  0  0  0  0  0  0  0  0  0
   10.9511   -4.6035   22.0642 O   0  0  0  0  0  0  0  0  0  0  0  0
    0.2369  -11.4827   22.4778 C   0  0  0  0  0  0  0  0  0  0  0  0
    5.0138   -9.4080   18.5699 N   0  0  0  0  0  0  0  0  0  0  0  0
   10.6826   -3.0303   17.7091 C   0  0  0  0  0  0  0  0  0  0  0  0
    6.6213   -7.1096   17.8478 C   0  0  0  0  0  0  0  0  0  0  0  0
    8.6139   -6.1756   18.4811 O   0  0  0  0  0  0  0  0  0  0  0  0
   10.0211   -4.8902   19.6764 Cl  0  0  0  0  0  0  0  0  0  0  0  0
    0.7126  -11.5140   20.3311 C   0  0  0  0  0  0  0  0  0  0  0  0
    2.7272  -10.2943   17.8978 C   0  0  0  0  0  0  0  0  0  0  0  0
    9.9090   -4.2094   17.5160 C   0  0  0  0  0  0  0  0  0  0  0  0
    9.6570   -5.3167   18.4177 C   0  0  0  0  0  0  0  0  0  0  0  0
    6.4976   -6.3866   15.3986 C   0  0  0  0  0  0  0  0  0  0  0  0
    7.7039   -6.6926   17.6906 C   0  0  0  0  0  0  0  0  0  0  0  0
    4.0957  -10.7671   18.6465 N   0  0  0  0  0  0  0  0  0  0  0  0
   11.1582   -3.5816   21.3788 C   0  0  0  0  0  0  0  0  0  0  0  0
    0.9562  -11.8569   21.4051 C   0  0  0  0  0  0  0  0  0  0  0  0
    4.4988   -9.0530   17.3358 C   0  0  0  0  0  0  0  0  0  0  0  0
   -1.3077  -10.4281   21.2726 C   0  0  0  0  0  0  0  0  0  0  0  0
    3.4324   -8.9490   17.1252 C   0  0  0  0  0  0  0  0  0  0  0  0
    9.5254   -4.5894   16.0596 C   0  0  0  0  0  0  0  0  0  0  0  0
   10.8602   -2.9932   19.0598 C   0  0  0  0  0  0  0  0  0  0  0  0
    1.8038   -9.6556   16.1185 C   0  0  0  0  0  0  0  0  0  0  0  0
   -0.6565  -10.7619   22.4890 C   0  0  0  0  0  0  0  0  0  0  0  0
    7.4620   -5.9604   16.2407 C   0  0  0  0  0  0  0  0  0  0  0  0
   -0.5221  -10.8232   20.1650 C   0  0  0  0  0  0  0  0  0  0  0  0
    1.4574  -11.6529   19.0683 O   0  0  0  0  0  0  0  0  0  0  0  0
   10.7618   -3.7562   20.0474 C   0  0  0  0  0  0  0  0  0  0  0  0
    1.4735  -10.9365   17.9951 C   0  0  0  0  0  0  0  0  0  0  0  0
    5.8347   -7.4903   15.7672 C   0  0  0  0  0  0  0  0  0  0  0  0
    0.7979  -10.7281   17.3293 He  0  0  0  0  0  0  0  0  0  0  0  0
    5.4044   -7.9903   17.4798 He  0  0  0  0  0  0  0  0  0  0  0  0
    2.6076   -8.5454   16.0660 He  0  0  0  0  0  0  0  0  0  0  0  0
  1 17  2  0
  2  8  1  0
  2 13  2  0
  2 22  4  0
  3 14  4  0
  3 17  1  0
  4 18  4  0
  4 25  4  0
  4 26  3  0
  5 16  4  0
  5 26  2  0
  6 12  4  0
  6 14  1  0
  6 23  4  0
  7 15  4  0
  7 16  4  0
  7 25  1  0
  7 27  1  0
  8 13  3  0
  8 27  3  0
  9 11  4  0
  9 13  4  0
  9 29  4  0
 10 18  4  0
 10 27  4  0
 10 28  1  0
 11 16  4  0
 11 21  4  0
 11 26  3  0
 11 30  4  0
 11 31  4  0
 12 13  4  0
 12 18  4  0
 12 22  4  0
 12 28  2  0
 13 31  3  0
 14 25  1  0
 14 26  4  0
 14 31  4  0
 15 26  4  0
 15 27  1  0
 16 23  2  0
 17 28  3  0
 17 29  1  0
 18 19  2  0
 18 27  1  0
 19 21  4  0
 19 30  2  0
 20 25  4  0
 20 27  4  0
 23 29  3  0
 25 26  3  0
 26 31  1  0
 28 29  3  0
 28 30  1  0
M  END
$$$$

 Created by Python create_sdf_string function

 34 39  0  0  0  0  0  0  0  0999 V2000
   11.7209   -2.5218   21.7062 O   0  0  0  0  0  0  0  0  0  0  0  0
    8.4913   -5.2426   15.6804 C   0  0  0  0  0  0  0  0  0  0  0  0
   10.9583   -4.5389   22.1904 O   0  0  0  0  0  0  0  0  0  0  0  0
    0.8732  -10.4709   17.0030 N   0  0  0  0  0  0  0  0  0  0  0  0
    0.3463  -11.5258   22.5632 C   0  0  0  0  0  0  0  0  0  0  0  0
    5.0101   -9.7330   18.5349 N   0  0  0  0  0  0  0  0  0  0  0  0
   10.6814   -3.1785   17.6782 C   0  0  0  0  0  0  0  0  0  0  0  0
    6.6385   -7.4412   17.9495 C   0  0  0  0  0  0  0  0  0  0  0  0
    8.6394   -6.1923   18.3321 O   0  0  0  0  0  0  0  0  0  0  0  0
   10.0442   -4.9599   19.7227 C   0  0  0  0  0  0  0  0  0  0  0  0
    0.6320  -11.4479   20.1811 C   0  0  0  0  0  0  0  0  0  0  0  0
    2.9910  -10.2839   18.0022 C   0  0  0  0  0  0  0  0  0  0  0  0
    9.8869   -4.3094   17.4286 C   0  0  0  0  0  0  0  0  0  0  0  0
    9.5135   -5.1373   18.4306 C   0  0  0  0  0  0  0  0  0  0  0  0
    6.6053   -6.5464   15.3924 C   0  0  0  0  0  0  0  0  0  0  0  0
    5.6385   -7.8727   17.1120 C   0  0  0  0  0  0  0  0  0  0  0  0
    7.6255   -6.5484   17.5077 C   0  0  0  0  0  0  0  0  0  0  0  0
    4.0249  -10.5861   18.8190 N   0  0  0  0  0  0  0  0  0  0  0  0
   11.1837   -3.5747   21.3650 C   0  0  0  0  0  0  0  0  0  0  0  0
    1.0530  -11.8519   21.4212 C   0  0  0  0  0  0  0  0  0  0  0  0
    4.6915   -8.8931   17.5366 C   0  0  0  0  0  0  0  0  0  0  0  0
   -1.2639  -10.4263   21.2194 C   0  0  0  0  0  0  0  0  0  0  0  0
    3.3860   -9.2756   17.1199 C   0  0  0  0  0  0  0  0  0  0  0  0
    9.5167   -4.5017   16.1055 C   0  0  0  0  0  0  0  0  0  0  0  0
   11.0370   -2.8663   19.0013 C   0  0  0  0  0  0  0  0  0  0  0  0
    1.2416   -9.4861   16.0651 C   0  0  0  0  0  0  0  0  0  0  0  0
   -0.7990  -10.8159   22.4568 C   0  0  0  0  0  0  0  0  0  0  0  0
    7.6086   -6.0919   16.2481 C   0  0  0  0  0  0  0  0  0  0  0  0
   -0.5296  -10.7529   20.1123 C   0  0  0  0  0  0  0  0  0  0  0  0
    1.3811  -11.7579   19.0026 O   0  0  0  0  0  0  0  0  0  0  0  0
    2.5097   -8.8770   16.1267 C   0  0  0  0  0  0  0  0  0  0  0  0
   10.7594   -3.7966   19.9827 C   0  0  0  0  0  0  0  0  0  0  0  0
    1.7360  -10.8202   18.0208 C   0  0  0  0  0  0  0  0  0  0  0  0
    5.6273   -7.3586   15.8806 C   0  0  0  0  0  0  0  0  0  0  0  0
  1 19  2  0
  2 24  4  0
  2 28  4  0
  3 19  1  0
  4 26  4  0
  4 33  4  0
  5 20  4  0
  5 27  4  0
  6 18  4  0
  6 21  4  0
  7 13  4  0
  7 25  4  0
  8 16  4  0
  8 17  4  0
  9 14  4  0
  9 17  4  0
 10 14  4  0
 10 32  4  0
 11 20  4  0
 11 29  4  0
 11 30  1  0
 12 18  4  0
 12 23  4  0
 12 33  4  0
 13 14  4  0
 13 24  4  0
 15 28  4  0
 15 34  4  0
 16 21  1  0
 16 34  4  0
 17 28  4  0
 19 32  1  0
 21 23  4  0
 22 27  4  0
 22 29  4  0
 23 31  4  0
 25 32  4  0
 26 31  4  0
 30 33  1  0
M  END
$$$$

 Created by Python create_sdf_string function

 34 63  0  0  0  0  0  0  0  0999 V2000
   11.8448   -2.4825   21.5265 O   0  0  0  0  0  0  0  0  0  0  0  0
   11.0129   -4.5463   22.2329 O   0  0  0  0  0  0  0  0  0  0  0  0
    1.0363  -10.3432   17.0242 N   0  0  0  0  0  0  0  0  0  0  0  0
    0.5350  -11.5001   22.3326 C   0  0  0  0  0  0  0  0  0  0  0  0
    5.0988   -9.8321   18.4388 N   0  0  0  0  0  0  0  0  0  0  0  0
   10.5711   -3.0998   17.6739 C   0  0  0  0  0  0  0  0  0  0  0  0
    6.4281   -7.6217   17.6782 C   0  0  0  0  0  0  0  0  0  0  0  0
    8.7140   -6.1298   18.6160 O   0  0  0  0  0  0  0  0  0  0  0  0
    9.9207   -4.9047   19.8739 C   0  0  0  0  0  0  0  0  0  0  0  0
    0.6743  -11.3527   20.0728 C   0  0  0  0  0  0  0  0  0  0  0  0
    2.6980  -10.2720   18.1858 C   0  0  0  0  0  0  0  0  0  0  0  0
    9.9995   -4.4598   17.5073 C   0  0  0  0  0  0  0  0  0  0  0  0
    9.4703   -5.1461   18.4579 C   0  0  0  0  0  0  0  0  0  0  0  0
    6.5111   -6.6500   15.5115 C   0  0  0  0  0  0  0  0  0  0  0  0
    5.6735   -7.6826   17.0527 C   0  0  0  0  0  0  0  0  0  0  0  0
    7.5611   -6.4731   17.5271 C   0  0  0  0  0  0  0  0  0  0  0  0
    4.3463  -10.7418   18.3671 N   0  0  0  0  0  0  0  0  0  0  0  0
   11.1338   -3.5794   21.3858 C   0  0  0  0  0  0  0  0  0  0  0  0
    0.9353  -11.7702   21.3567 C   0  0  0  0  0  0  0  0  0  0  0  0
    4.3482   -8.5100   17.8146 C   0  0  0  0  0  0  0  0  0  0  0  0
   -1.3081  -10.3719   21.2766 C   0  0  0  0  0  0  0  0  0  0  0  0
    3.3004   -9.1413   17.1075 C   0  0  0  0  0  0  0  0  0  0  0  0
    9.5295   -4.6137   16.1214 C   0  0  0  0  0  0  0  0  0  0  0  0
   11.0606   -2.7337   19.0863 C   0  0  0  0  0  0  0  0  0  0  0  0
    1.2135   -9.5318   16.0063 C   0  0  0  0  0  0  0  0  0  0  0  0
   -0.7599  -10.8189   22.5791 C   0  0  0  0  0  0  0  0  0  0  0  0
    7.8876   -6.5013   16.3116 C   0  0  0  0  0  0  0  0  0  0  0  0
   -0.3960  -10.6296   20.1108 C   0  0  0  0  0  0  0  0  0  0  0  0
    1.3942  -11.7565   18.9351 O   0  0  0  0  0  0  0  0  0  0  0  0
   10.7334   -3.8370   20.0321 C   0  0  0  0  0  0  0  0  0  0  0  0
    1.5614  -10.8828   18.2604 C   0  0  0  0  0  0  0  0  0  0  0  0
    5.7502   -7.3742   15.8700 C   0  0  0  0  0  0  0  0  0  0  0  0
    8.3029   -5.1400   15.5777 He  0  0  0  0  0  0  0  0  0  0  0  0
    2.8899   -8.9761   15.9590 He  0  0  0  0  0  0  0  0  0  0  0  0
  1  5  4  0
  1  8  1  0
  1 18  2  0
  1 25  2  0
  1 27  4  0
  2  4  3  0
  2 18  1  0
  2 23  1  0
  3  7  2  0
  3 16  2  0
  3 19  4  0
  3 21  4  0
  3 25  4  0
  4 16  1  0
  4 19  4  0
  4 26  4  0
  5 17  4  0
  5 18  4  0
  5 20  4  0
  5 25  4  0
  6 12  4  0
  6 14  3  0
  6 24  4  0
  6 25  3  0
  7 15  4  0
  7 16  4  0
  8 13  4  0
  8 24  3  0
  8 26  3  0
  9 13  4  0
  9 21  2  0
  9 30  4  0
 10 17  2  0
 10 18  3  0
 10 19  4  0
 10 28  4  0
 10 29  1  0
 10 31  3  0
 11 17  4  0
 11 31  4  0
 12 13  4  0
 12 15  2  0
 12 23  4  0
 14 18  1  0
 14 27  4  0
 14 32  4  0
 15 20  1  0
 15 28  3  0
 15 29  1  0
 15 32  4  0
 16 27  4  0
 16 30  3  0
 18 23  2  0
 18 26  3  0
 18 27  3  0
 18 30  1  0
 19 26  4  0
 20 22  4  0
 21 28  4  0
 22 30  3  0
 24 30  4  0
 26 27  2  0
 29 31  1  0
M  END
$$$$

 Created by Python create_sdf_string function

 34 39  0  0  0  0  0  0  0  0999 V2000
   11.8451   -2.4739   21.6444 O   0  0  0  0  0  0  0  0  0  0  0  0
    8.5565   -5.3582   15.6990 C   0  0  0  0  0  0  0  0  0  0  0  0
   11.0104   -4.4317   22.2676 O   0  0  0  0  0  0  0  0  0  0  0  0
    0.8619  -10.3792   17.0090 N   0  0  0  0  0  0  0  0  0  0  0  0
    0.4433  -11.5502   22.4957 C   0  0  0  0  0  0  0  0  0  0  0  0
    5.0159   -9.7673   18.5030 N   0  0  0  0  0  0  0  0  0  0  0  0
   10.6859   -3.2235   17.6966 C   0  0  0  0  0  0  0  0  0  0  0  0
    6.6201   -7.4816   17.9269 C   0  0  0  0  0  0  0  0  0  0  0  0
    8.6235   -6.1915   18.3810 O   0  0  0  0  0  0  0  0  0  0  0  0
    9.9830   -4.9163   19.7943 C   0  0  0  0  0  0  0  0  0  0  0  0
    0.6102  -11.3735   20.1122 C   0  0  0  0  0  0  0  0  0  0  0  0
    3.0017  -10.3210   17.9726 C   0  0  0  0  0  0  0  0  0  0  0  0
    9.8537   -4.3342   17.4746 C   0  0  0  0  0  0  0  0  0  0  0  0
    9.4746   -5.1500   18.5096 C   0  0  0  0  0  0  0  0  0  0  0  0
    6.6281   -6.6093   15.3815 C   0  0  0  0  0  0  0  0  0  0  0  0
    5.6178   -7.9120   17.0790 C   0  0  0  0  0  0  0  0  0  0  0  0
    7.6347   -6.5814   17.5220 C   0  0  0  0  0  0  0  0  0  0  0  0
    4.0320  -10.6355   18.7441 N   0  0  0  0  0  0  0  0  0  0  0  0
   11.2388   -3.5185   21.3625 C   0  0  0  0  0  0  0  0  0  0  0  0
    1.0953  -11.8136   21.3272 C   0  0  0  0  0  0  0  0  0  0  0  0
    4.6956   -8.9201   17.4902 C   0  0  0  0  0  0  0  0  0  0  0  0
   -1.2312  -10.3699   21.2773 C   0  0  0  0  0  0  0  0  0  0  0  0
    3.3796   -9.2761   17.0879 C   0  0  0  0  0  0  0  0  0  0  0  0
    9.4644   -4.5374   16.1649 C   0  0  0  0  0  0  0  0  0  0  0  0
   11.0559   -2.8915   18.9991 C   0  0  0  0  0  0  0  0  0  0  0  0
    1.2759   -9.4975   16.0222 C   0  0  0  0  0  0  0  0  0  0  0  0
   -0.7081  -10.8282   22.4694 C   0  0  0  0  0  0  0  0  0  0  0  0
    7.6313   -6.1562   16.2336 C   0  0  0  0  0  0  0  0  0  0  0  0
   -0.5520  -10.6374   20.1193 C   0  0  0  0  0  0  0  0  0  0  0  0
    1.2731  -11.7229   18.8991 O   0  0  0  0  0  0  0  0  0  0  0  0
    2.5127   -8.8174   16.1462 C   0  0  0  0  0  0  0  0  0  0  0  0
   10.7509   -3.7724   20.0291 C   0  0  0  0  0  0  0  0  0  0  0  0
    1.7068  -10.7933   17.9842 C   0  0  0  0  0  0  0  0  0  0  0  0
    5.6191   -7.3813   15.8446 C   0  0  0  0  0  0  0  0  0  0  0  0
  1 19  2  0
  2 24  4  0
  2 28  4  0
  3 19  1  0
  4 26  4  0
  4 33  4  0
  5 20  4  0
  5 27  4  0
  6 18  4  0
  6 21  4  0
  7 13  4  0
  7 25  4  0
  8 16  4  0
  8 17  4  0
  9 14  4  0
  9 17  4  0
 10 14  4  0
 10 32  4  0
 11 20  4  0
 11 29  4  0
 11 30  1  0
 12 18  4  0
 12 23  4  0
 12 33  4  0
 13 14  4  0
 13 24  4  0
 15 28  4  0
 15 34  4  0
 16 21  1  0
 16 34  4  0
 17 28  4  0
 19 32  1  0
 21 23  4  0
 22 27  4  0
 22 29  4  0
 23 31  4  0
 25 32  4  0
 26 31  4  0
 30 33  1  0
M  END
$$$$

 Created by Python create_sdf_string function

 34 61  0  0  0  0  0  0  0  0999 V2000
   11.8392   -2.3332   21.6493 O   0  0  0  0  0  0  0  0  0  0  0  0
    8.5069   -5.2429   15.8229 C   0  0  0  0  0  0  0  0  0  0  0  0
   10.9133   -4.4442   22.2895 O   0  0  0  0  0  0  0  0  0  0  0  0
    0.7574  -10.4621   16.9784 N   0  0  0  0  0  0  0  0  0  0  0  0
    0.3506  -11.4023   22.4487 C   0  0  0  0  0  0  0  0  0  0  0  0
    5.2481   -9.4615   18.3811 N   0  0  0  0  0  0  0  0  0  0  0  0
   10.6311   -3.3133   17.5092 C   0  0  0  0  0  0  0  0  0  0  0  0
    6.6252   -7.6587   17.9781 C   0  0  0  0  0  0  0  0  0  0  0  0
    8.5798   -6.2076   18.0976 O   0  0  0  0  0  0  0  0  0  0  0  0
    9.9751   -4.6997   19.7839 C   0  0  0  0  0  0  0  0  0  0  0  0
    0.5074  -11.3949   20.1664 C   0  0  0  0  0  0  0  0  0  0  0  0
    3.1736  -10.3679   17.9769 C   0  0  0  0  0  0  0  0  0  0  0  0
   10.0327   -4.4092   17.6323 C   0  0  0  0  0  0  0  0  0  0  0  0
    9.4532   -5.1491   18.3678 I   0  0  0  0  0  0  0  0  0  0  0  0
    6.8564   -6.6136   15.6247 C   0  0  0  0  0  0  0  0  0  0  0  0
    5.5157   -7.8207   16.9618 F   0  0  0  0  0  0  0  0  0  0  0  0
    7.6900   -6.5344   17.5159 C   0  0  0  0  0  0  0  0  0  0  0  0
    4.1593  -10.6193   18.9171 N   0  0  0  0  0  0  0  0  0  0  0  0
   11.0948   -3.5453   21.5432 C   0  0  0  0  0  0  0  0  0  0  0  0
    1.2391  -11.8041   21.3528 C   0  0  0  0  0  0  0  0  0  0  0  0
    4.4060   -8.9527   17.3811 C   0  0  0  0  0  0  0  0  0  0  0  0
   -1.0933  -10.3396   21.3284 C   0  0  0  0  0  0  0  0  0  0  0  0
    3.3810   -9.3573   16.9974 C   0  0  0  0  0  0  0  0  0  0  0  0
    9.5421   -4.6168   16.0575 C   0  0  0  0  0  0  0  0  0  0  0  0
   11.0614   -2.7263   18.8725 C   0  0  0  0  0  0  0  0  0  0  0  0
    1.0627   -9.3171   16.1669 C   0  0  0  0  0  0  0  0  0  0  0  0
   -0.7162  -10.6825   22.5850 C   0  0  0  0  0  0  0  0  0  0  0  0
    7.5780   -6.0506   16.0856 C   0  0  0  0  0  0  0  0  0  0  0  0
   -0.5174  -10.7080   19.9903 C   0  0  0  0  0  0  0  0  0  0  0  0
    1.2355  -11.6909   18.9711 O   0  0  0  0  0  0  0  0  0  0  0  0
   10.8630   -3.7192   19.8947 C   0  0  0  0  0  0  0  0  0  0  0  0
    1.8073  -10.8768   17.9668 C   0  0  0  0  0  0  0  0  0  0  0  0
    5.6050   -7.4300   15.7087 C   0  0  0  0  0  0  0  0  0  0  0  0
    2.5520   -8.6047   16.2149 He  0  0  0  0  0  0  0  0  0  0  0  0
  1 19  2  0
  1 20  2  0
  1 33  1  0
  2  4  3  0
  2  6  3  0
  2 28  4  0
  2 30  1  0
  3  9  4  0
  3 19  1  0
  3 21  1  0
  4  7  2  0
  4 26  4  0
  4 29  1  0
  4 32  4  0
  5  6  2  0
  5 19  1  0
  5 27  4  0
  6  9  2  0
  6 16  4  0
  6 18  4  0
  6 21  4  0
  7 25  4  0
  8 16  4  0
  8 17  4  0
  8 28  2  0
  8 29  1  0
  9 17  4  0
  9 26  4  0
  9 33  2  0
 10 14  4  0
 10 31  4  0
 11 20  4  0
 11 29  4  0
 11 30  1  0
 12 18  4  0
 12 19  3  0
 12 23  4  0
 12 27  2  0
 12 30  4  0
 12 32  4  0
 13 14  4  0
 13 24  4  0
 13 26  2  0
 14 15  2  0
 14 20  1  0
 14 25  1  0
 14 28  1  0
 15 19  1  0
 15 28  3  0
 15 33  4  0
 16 21  1  0
 16 33  4  0
 17 28  4  0
 18 22  4  0
 19 31  2  0
 21 23  4  0
 22 27  4  0
 22 29  4  0
 24 28  3  0
 24 29  2  0
 25 31  4  0
M  END
$$$$

 Created by Python create_sdf_string function

 34 39  0  0  0  0  0  0  0  0999 V2000
   11.7962   -2.3813   21.6382 O   0  0  0  0  0  0  0  0  0  0  0  0
    8.5115   -5.2981   15.7183 C   0  0  0  0  0  0  0  0  0  0  0  0
   10.8984   -4.3450   22.2379 O   0  0  0  0  0  0  0  0  0  0  0  0
    0.8115  -10.3584   17.0603 N   0  0  0  0  0  0  0  0  0  0  0  0
    0.4795  -11.4544   22.4933 C   0  0  0  0  0  0  0  0  0  0  0  0
    5.0400   -9.7611   18.4785 N   0  0  0  0  0  0  0  0  0  0  0  0
   10.7945   -3.2231   17.6052 C   0  0  0  0  0  0  0  0  0  0  0  0
    6.6541   -7.5362   17.8615 C   0  0  0  0  0  0  0  0  0  0  0  0
    8.5665   -6.1219   18.3162 O   0  0  0  0  0  0  0  0  0  0  0  0
   10.0042   -4.8391   19.7047 C   0  0  0  0  0  0  0  0  0  0  0  0
    0.6303  -11.3752   20.1054 C   0  0  0  0  0  0  0  0  0  0  0  0
    3.0010  -10.2791   18.0036 C   0  0  0  0  0  0  0  0  0  0  0  0
    9.9371   -4.3089   17.4110 C   0  0  0  0  0  0  0  0  0  0  0  0
    9.5186   -5.0971   18.4389 C   0  0  0  0  0  0  0  0  0  0  0  0
    6.6232   -6.5508   15.3537 C   0  0  0  0  0  0  0  0  0  0  0  0
    5.6615   -7.9626   16.9904 C   0  0  0  0  0  0  0  0  0  0  0  0
    7.6212   -6.6144   17.4699 C   0  0  0  0  0  0  0  0  0  0  0  0
    4.0461  -10.6249   18.7525 N   0  0  0  0  0  0  0  0  0  0  0  0
   11.1884   -3.4343   21.3393 C   0  0  0  0  0  0  0  0  0  0  0  0
    1.1207  -11.7794   21.3292 C   0  0  0  0  0  0  0  0  0  0  0  0
    4.7114   -8.9268   17.4621 C   0  0  0  0  0  0  0  0  0  0  0  0
   -1.2121  -10.3545   21.2456 C   0  0  0  0  0  0  0  0  0  0  0  0
    3.3769   -9.2540   17.1177 C   0  0  0  0  0  0  0  0  0  0  0  0
    9.5210   -4.5116   16.1307 C   0  0  0  0  0  0  0  0  0  0  0  0
   11.1406   -2.8621   18.9300 C   0  0  0  0  0  0  0  0  0  0  0  0
    1.1915   -9.3776   16.1354 C   0  0  0  0  0  0  0  0  0  0  0  0
   -0.6859  -10.7322   22.4624 C   0  0  0  0  0  0  0  0  0  0  0  0
    7.6304   -6.1459   16.2109 C   0  0  0  0  0  0  0  0  0  0  0  0
   -0.5446  -10.6678   20.0921 C   0  0  0  0  0  0  0  0  0  0  0  0
    1.3098  -11.7403   18.9046 O   0  0  0  0  0  0  0  0  0  0  0  0
    2.4839   -8.8131   16.1822 C   0  0  0  0  0  0  0  0  0  0  0  0
   10.7761   -3.7032   19.9732 C   0  0  0  0  0  0  0  0  0  0  0  0
    1.7112  -10.7731   17.9955 C   0  0  0  0  0  0  0  0  0  0  0  0
    5.6614   -7.4251   15.7514 C   0  0  0  0  0  0  0  0  0  0  0  0
  1 19  2  0
  2 24  4  0
  2 28  4  0
  3 19  1  0
  4 26  4  0
  4 33  4  0
  5 20  4  0
  5 27  4  0
  6 18  4  0
  6 21  4  0
  7 13  4  0
  7 25  4  0
  8 16  4  0
  8 17  4  0
  9 14  4  0
  9 17  4  0
 10 14  4  0
 10 32  4  0
 11 20  4  0
 11 29  4  0
 11 30  1  0
 12 18  4  0
 12 23  4  0
 12 33  4  0
 13 14  4  0
 13 24  4  0
 15 28  4  0
 15 34  4  0
 16 21  1  0
 16 34  4  0
 17 28  4  0
 19 32  1  0
 21 23  4  0
 22 27  4  0
 22 29  4  0
 23 31  4  0
 25 32  4  0
 26 31  4  0
 30 33  1  0
M  END
$$$$

 Created by Python create_sdf_string function

 34 60  0  0  0  0  0  0  0  0999 V2000
   11.8570   -2.4939   21.7574 O   0  0  0  0  0  0  0  0  0  0  0  0
    8.3873   -5.3156   15.6536 C   0  0  0  0  0  0  0  0  0  0  0  0
   11.0559   -4.4474   22.3514 O   0  0  0  0  0  0  0  0  0  0  0  0
    0.8940  -10.3881   16.7646 N   0  0  0  0  0  0  0  0  0  0  0  0
    5.0668   -9.6649   18.5213 C   0  0  0  0  0  0  0  0  0  0  0  0
   10.8183   -3.1366   17.7336 C   0  0  0  0  0  0  0  0  0  0  0  0
    6.7798   -7.4690   17.6496 C   0  0  0  0  0  0  0  0  0  0  0  0
    8.4206   -5.7378   18.4414 O   0  0  0  0  0  0  0  0  0  0  0  0
    9.8310   -4.8944   19.7574 C   0  0  0  0  0  0  0  0  0  0  0  0
    0.6509  -11.3909   20.1115 C   0  0  0  0  0  0  0  0  0  0  0  0
    2.9547  -10.0804   17.8774 C   0  0  0  0  0  0  0  0  0  0  0  0
    9.9961   -4.2532   17.2711 C   0  0  0  0  0  0  0  0  0  0  0  0
    9.3868   -5.3002   18.3076 C   0  0  0  0  0  0  0  0  0  0  0  0
    6.6575   -6.6548   15.3815 C   0  0  0  0  0  0  0  0  0  0  0  0
    5.7036   -7.6160   16.7947 C   0  0  0  0  0  0  0  0  0  0  0  0
    7.6646   -6.5993   17.3636 C   0  0  0  0  0  0  0  0  0  0  0  0
    3.9409  -10.6456   18.8683 N   0  0  0  0  0  0  0  0  0  0  0  0
   11.2618   -3.4715   21.2276 C   0  0  0  0  0  0  0  0  0  0  0  0
    1.0282  -11.6682   21.3386 C   0  0  0  0  0  0  0  0  0  0  0  0
    4.7865   -9.1032   17.1221 C   0  0  0  0  0  0  0  0  0  0  0  0
    3.2959   -9.3135   17.3255 C   0  0  0  0  0  0  0  0  0  0  0  0
    9.5712   -4.4959   16.0440 C   0  0  0  0  0  0  0  0  0  0  0  0
   11.0861   -2.9889   18.7715 C   0  0  0  0  0  0  0  0  0  0  0  0
    1.2832   -9.4495   16.2386 C   0  0  0  0  0  0  0  0  0  0  0  0
   -0.7030  -10.8822   22.6011 C   0  0  0  0  0  0  0  0  0  0  0  0
    7.4785   -5.7785   15.8602 C   0  0  0  0  0  0  0  0  0  0  0  0
   -0.5916  -10.9085   20.0601 C   0  0  0  0  0  0  0  0  0  0  0  0
    1.3029  -11.6251   18.8634 O   0  0  0  0  0  0  0  0  0  0  0  0
    2.3986   -8.6691   16.1347 C   0  0  0  0  0  0  0  0  0  0  0  0
   10.8321   -3.8037   19.9236 C   0  0  0  0  0  0  0  0  0  0  0  0
    1.5230  -10.7869   17.9845 O   0  0  0  0  0  0  0  0  0  0  0  0
    5.7370   -7.4157   15.6520 C   0  0  0  0  0  0  0  0  0  0  0  0
    0.3793  -11.4490   22.5935 He  0  0  0  0  0  0  0  0  0  0  0  0
   -1.1938  -10.1142   21.3357 He  0  0  0  0  0  0  0  0  0  0  0  0
  1  4  2  0
  1 15  2  0
  1 18  2  0
  1 25  1  0
  2 22  4  0
  2 26  4  0
  3 18  1  0
  3 20  2  0
  3 24  3  0
  3 31  4  0
  4  8  1  0
  4 24  4  0
  4 26  1  0
  4 31  4  0
  5 12  3  0
  5 17  4  0
  5 18  1  0
  5 20  4  0
  6 10  1  0
  6 12  4  0
  6 23  4  0
  7 10  3  0
  7 15  4  0
  7 16  4  0
  7 18  3  0
  8 13  4  0
  8 16  4  0
  8 19  1  0
  8 26  4  0
  8 31  4  0
  9 13  4  0
  9 24  2  0
  9 30  4  0
 10 19  4  0
 10 27  4  0
 10 28  1  0
 11 17  4  0
 11 21  4  0
 11 24  3  0
 11 29  2  0
 11 31  4  0
 11 32  1  0
 12 13  4  0
 12 22  4  0
 14 32  4  0
 15 20  1  0
 15 32  1  0
 16 21  1  0
 17 19  4  0
 17 29  4  0
 19 20  1  0
 19 24  2  0
 19 32  2  0
 21 29  4  0
 23 30  3  0
 24 27  4  0
 24 29  4  0
 26 32  3  0
 28 31  1  0
 29 32  4  0
M  END
$$$$

 Created by Python create_sdf_string function

 34 39  0  0  0  0  0  0  0  0999 V2000
   11.8604   -2.4609   21.6299 O   0  0  0  0  0  0  0  0  0  0  0  0
    8.4600   -5.1800   15.6180 C   0  0  0  0  0  0  0  0  0  0  0  0
   10.9908   -4.4275   22.2208 O   0  0  0  0  0  0  0  0  0  0  0  0
    0.7930  -10.3246   16.9810 N   0  0  0  0  0  0  0  0  0  0  0  0
    0.4778  -11.4719   22.5031 C   0  0  0  0  0  0  0  0  0  0  0  0
    4.9907   -9.7815   18.4243 C   0  0  0  0  0  0  0  0  0  0  0  0
   10.8467   -3.2379   17.6006 C   0  0  0  0  0  0  0  0  0  0  0  0
    6.6475   -7.4643   17.7418 C   0  0  0  0  0  0  0  0  0  0  0  0
    8.4945   -6.0166   18.2309 O   0  0  0  0  0  0  0  0  0  0  0  0
    9.9509   -4.8261   19.7088 C   0  0  0  0  0  0  0  0  0  0  0  0
    0.6190  -11.3594   20.1043 C   0  0  0  0  0  0  0  0  0  0  0  0
    2.9393  -10.2280   17.9587 C   0  0  0  0  0  0  0  0  0  0  0  0
    9.9077   -4.2670   17.3842 C   0  0  0  0  0  0  0  0  0  0  0  0
    9.4335   -5.0387   18.4128 C   0  0  0  0  0  0  0  0  0  0  0  0
    6.6011   -6.5262   15.1944 C   0  0  0  0  0  0  0  0  0  0  0  0
    5.6988   -7.9411   16.8862 C   0  0  0  0  0  0  0  0  0  0  0  0
    7.5735   -6.5150   17.3496 C   0  0  0  0  0  0  0  0  0  0  0  0
    3.9551  -10.5609   18.7755 N   0  0  0  0  0  0  0  0  0  0  0  0
   11.2632   -3.5007   21.3405 C   0  0  0  0  0  0  0  0  0  0  0  0
    1.1145  -11.7657   21.3207 C   0  0  0  0  0  0  0  0  0  0  0  0
    4.7058   -8.9066   17.3828 C   0  0  0  0  0  0  0  0  0  0  0  0
   -1.2485  -10.4195   21.3091 C   0  0  0  0  0  0  0  0  0  0  0  0
    3.3523   -9.2363   17.0667 C   0  0  0  0  0  0  0  0  0  0  0  0
    9.4774   -4.4650   16.0853 C   0  0  0  0  0  0  0  0  0  0  0  0
   11.2005   -2.9346   18.9274 C   0  0  0  0  0  0  0  0  0  0  0  0
    1.2026   -9.3659   16.0641 C   0  0  0  0  0  0  0  0  0  0  0  0
   -0.6974  -10.7729   22.5206 C   0  0  0  0  0  0  0  0  0  0  0  0
    7.5712   -6.0719   16.0694 C   0  0  0  0  0  0  0  0  0  0  0  0
   -0.5770  -10.6893   20.1415 C   0  0  0  0  0  0  0  0  0  0  0  0
    1.2758  -11.6790   18.8575 O   0  0  0  0  0  0  0  0  0  0  0  0
    2.4792   -8.7909   16.1267 C   0  0  0  0  0  0  0  0  0  0  0  0
   10.8149   -3.7594   19.9652 C   0  0  0  0  0  0  0  0  0  0  0  0
    1.6616  -10.7207   17.9395 C   0  0  0  0  0  0  0  0  0  0  0  0
    5.6566   -7.4284   15.6158 C   0  0  0  0  0  0  0  0  0  0  0  0
  1 19  2  0
  2 24  4  0
  2 28  4  0
  3 19  1  0
  4 26  4  0
  4 33  4  0
  5 20  4  0
  5 27  4  0
  6 18  4  0
  6 21  4  0
  7 13  4  0
  7 25  4  0
  8 16  4  0
  8 17  4  0
  9 14  4  0
  9 17  4  0
 10 14  4  0
 10 32  4  0
 11 20  4  0
 11 29  4  0
 11 30  1  0
 12 18  4  0
 12 23  4  0
 12 33  4  0
 13 14  4  0
 13 24  4  0
 15 28  4  0
 15 34  4  0
 16 21  1  0
 16 34  4  0
 17 28  4  0
 19 32  1  0
 21 23  4  0
 22 27  4  0
 22 29  4  0
 23 31  4  0
 25 32  4  0
 26 31  4  0
 30 33  1  0
M  END
$$$$

 Created by Python create_sdf_string function

 34 58  0  0  0  0  0  0  0  0999 V2000
   11.6823   -2.6007   21.4439 O   0  0  0  0  0  0  0  0  0  0  0  0
    8.4327   -5.0719   15.6331 C   0  0  0  0  0  0  0  0  0  0  0  0
   11.1141   -4.3975   22.1751 O   0  0  0  0  0  0  0  0  0  0  0  0
    0.9699  -10.4044   17.0845 N   0  0  0  0  0  0  0  0  0  0  0  0
    0.5262  -11.4833   22.3667 C   0  0  0  0  0  0  0  0  0  0  0  0
    5.1846   -9.4732   18.3230 C   0  0  0  0  0  0  0  0  0  0  0  0
   10.8711   -3.3988   17.4678 C   0  0  0  0  0  0  0  0  0  0  0  0
    6.6728   -7.3148   17.6977 S   0  0  0  0  0  0  0  0  0  0  0  0
    8.3031   -5.9374   18.3441 O   0  0  0  0  0  0  0  0  0  0  0  0
   10.0214   -4.8293   19.6952 C   0  0  0  0  0  0  0  0  0  0  0  0
    0.7277  -11.2606   20.2317 C   0  0  0  0  0  0  0  0  0  0  0  0
    2.9029  -10.2373   17.9281 C   0  0  0  0  0  0  0  0  0  0  0  0
    9.6984   -4.1386   17.4200 C   0  0  0  0  0  0  0  0  0  0  0  0
    9.5131   -5.0899   18.4547 C   0  0  0  0  0  0  0  0  0  0  0  0
    6.7862   -6.2167   15.3167 C   0  0  0  0  0  0  0  0  0  0  0  0
    5.8123   -7.9718   16.9232 O   0  0  0  0  0  0  0  0  0  0  0  0
    7.4949   -6.4977   17.2523 F   0  0  0  0  0  0  0  0  0  0  0  0
    4.0816  -10.5821   18.6372 N   0  0  0  0  0  0  0  0  0  0  0  0
   11.3744   -3.3867   21.2984 C   0  0  0  0  0  0  0  0  0  0  0  0
    0.9567  -11.7388   21.2768 C   0  0  0  0  0  0  0  0  0  0  0  0
   -1.2464  -10.5359   21.3231 C   0  0  0  0  0  0  0  0  0  0  0  0
    3.2814   -9.2862   17.0805 C   0  0  0  0  0  0  0  0  0  0  0  0
    9.3199   -4.4406   16.2999 Br  0  0  0  0  0  0  0  0  0  0  0  0
   11.0865   -2.8380   18.8895 C   0  0  0  0  0  0  0  0  0  0  0  0
    1.2601   -9.6241   16.0570 F   0  0  0  0  0  0  0  0  0  0  0  0
   -0.5633  -10.6727   22.6959 C   0  0  0  0  0  0  0  0  0  0  0  0
    7.7416   -6.1361   16.1277 C   0  0  0  0  0  0  0  0  0  0  0  0
   -0.5834  -10.6870   20.1202 S   0  0  0  0  0  0  0  0  0  0  0  0
    1.1888  -11.7791   19.0052 O   0  0  0  0  0  0  0  0  0  0  0  0
    2.5086   -8.7992   15.9048 C   0  0  0  0  0  0  0  0  0  0  0  0
   10.8206   -3.6686   20.0007 C   0  0  0  0  0  0  0  0  0  0  0  0
    1.6160  -10.7597   17.8869 O   0  0  0  0  0  0  0  0  0  0  0  0
    5.8577   -7.5523   15.6924 C   0  0  0  0  0  0  0  0  0  0  0  0
    4.6617   -9.0096   17.3685 He  0  0  0  0  0  0  0  0  0  0  0  0
  1 10  3  0
  1 19  2  0
  1 20  2  0
  1 31  1  0
  2  8  1  0
  2 25  2  0
  2 27  4  0
  3 19  1  0
  3 21  4  0
  4 24  4  0
  4 25  4  0
  4 32  4  0
  5 20  4  0
  5 22  1  0
  5 33  2  0
  6 12  2  0
  6 22  3  0
  6 31  3  0
  7 13  4  0
  7 24  3  0
  7 28  1  0
  7 30  2  0
  8 13  1  0
  8 16  4  0
  8 17  4  0
  8 19  2  0
  9 14  4  0
  9 15  2  0
  9 17  4  0
  9 32  3  0
 10 14  4  0
 10 29  3  0
 10 31  4  0
 11 20  4  0
 11 23  2  0
 11 28  4  0
 11 29  1  0
 12 18  4  0
 12 22  4  0
 12 32  4  0
 13 14  4  0
 13 23  4  0
 13 28  2  0
 14 25  1  0
 15 27  4  0
 15 33  4  0
 16 33  4  0
 17 27  4  0
 18 28  3  0
 19 31  1  0
 21 26  4  0
 21 27  1  0
 21 28  4  0
 24 31  4  0
 25 30  4  0
 26 31  3  0
 28 29  1  0
 29 32  1  0
M  END
$$$$

 Created by Python create_sdf_string function

 34 39  0  0  0  0  0  0  0  0999 V2000
   11.8205   -2.3804   21.5414 O   0  0  0  0  0  0  0  0  0  0  0  0
    8.4449   -5.0862   15.6321 C   0  0  0  0  0  0  0  0  0  0  0  0
   11.0864   -4.3586   22.1634 O   0  0  0  0  0  0  0  0  0  0  0  0
    0.8405  -10.3655   16.9743 N   0  0  0  0  0  0  0  0  0  0  0  0
    0.5571  -11.4898   22.5049 C   0  0  0  0  0  0  0  0  0  0  0  0
    5.0146   -9.7230   18.3649 C   0  0  0  0  0  0  0  0  0  0  0  0
   10.7588   -3.2261   17.5773 C   0  0  0  0  0  0  0  0  0  0  0  0
    6.6838   -7.4496   17.7469 C   0  0  0  0  0  0  0  0  0  0  0  0
    8.4812   -6.0101   18.2874 O   0  0  0  0  0  0  0  0  0  0  0  0
    9.9540   -4.7960   19.7187 C   0  0  0  0  0  0  0  0  0  0  0  0
    0.6317  -11.3636   20.1030 C   0  0  0  0  0  0  0  0  0  0  0  0
    2.9913  -10.2552   17.9438 C   0  0  0  0  0  0  0  0  0  0  0  0
    9.8513   -4.2413   17.3988 C   0  0  0  0  0  0  0  0  0  0  0  0
    9.4250   -5.0329   18.4479 C   0  0  0  0  0  0  0  0  0  0  0  0
    6.7208   -6.5316   15.2149 C   0  0  0  0  0  0  0  0  0  0  0  0
    5.7214   -7.9174   16.8982 C   0  0  0  0  0  0  0  0  0  0  0  0
    7.6019   -6.4573   17.3837 C   0  0  0  0  0  0  0  0  0  0  0  0
    3.9993  -10.5213   18.7463 N   0  0  0  0  0  0  0  0  0  0  0  0
   11.2836   -3.4489   21.2701 C   0  0  0  0  0  0  0  0  0  0  0  0
    1.1659  -11.7658   21.2950 C   0  0  0  0  0  0  0  0  0  0  0  0
    4.7462   -8.9087   17.3360 C   0  0  0  0  0  0  0  0  0  0  0  0
   -1.2198  -10.4150   21.3631 C   0  0  0  0  0  0  0  0  0  0  0  0
    3.4116   -9.3021   16.9950 C   0  0  0  0  0  0  0  0  0  0  0  0
    9.4269   -4.3324   16.1337 C   0  0  0  0  0  0  0  0  0  0  0  0
   11.2028   -2.9333   18.8645 C   0  0  0  0  0  0  0  0  0  0  0  0
    1.2793   -9.4686   16.0044 C   0  0  0  0  0  0  0  0  0  0  0  0
   -0.6439  -10.8099   22.5416 C   0  0  0  0  0  0  0  0  0  0  0  0
    7.6084   -5.9916   16.1078 C   0  0  0  0  0  0  0  0  0  0  0  0
   -0.5828  -10.6948   20.1574 C   0  0  0  0  0  0  0  0  0  0  0  0
    1.2934  -11.6534   18.8847 O   0  0  0  0  0  0  0  0  0  0  0  0
    2.5487   -8.8959   16.0194 C   0  0  0  0  0  0  0  0  0  0  0  0
   10.8383   -3.7296   19.9201 C   0  0  0  0  0  0  0  0  0  0  0  0
    1.6962  -10.7371   17.9408 C   0  0  0  0  0  0  0  0  0  0  0  0
    5.7467   -7.4460   15.6589 C   0  0  0  0  0  0  0  0  0  0  0  0
  1 19  2  0
  2 24  4  0
  2 28  4  0
  3 19  1  0
  4 26  4  0
  4 33  4  0
  5 20  4  0
  5 27  4  0
  6 18  4  0
  6 21  4  0
  7 13  4  0
  7 25  4  0
  8 16  4  0
  8 17  4  0
  9 14  4  0
  9 17  4  0
 10 14  4  0
 10 32  4  0
 11 20  4  0
 11 29  4  0
 11 30  1  0
 12 18  4  0
 12 23  4  0
 12 33  4  0
 13 14  4  0
 13 24  4  0
 15 28  4  0
 15 34  4  0
 16 21  1  0
 16 34  4  0
 17 28  4  0
 19 32  1  0
 21 23  4  0
 22 27  4  0
 22 29  4  0
 23 31  4  0
 25 32  4  0
 26 31  4  0
 30 33  1  0
M  END
$$$$

 Created by Python create_sdf_string function

 34 43  0  0  0  0  0  0  0  0999 V2000
   11.7480   -2.4391   21.6127 O   0  0  0  0  0  0  0  0  0  0  0  0
    8.4558   -5.1463   15.6250 C   0  0  0  0  0  0  0  0  0  0  0  0
    0.8995  -10.4897   16.9519 N   0  0  0  0  0  0  0  0  0  0  0  0
    0.6157  -11.3264   22.3587 C   0  0  0  0  0  0  0  0  0  0  0  0
    5.0231   -9.8467   18.2825 C   0  0  0  0  0  0  0  0  0  0  0  0
   10.9376   -3.1727   17.6285 C   0  0  0  0  0  0  0  0  0  0  0  0
    6.6977   -7.4703   17.7045 C   0  0  0  0  0  0  0  0  0  0  0  0
    8.4531   -5.9301   18.4179 O   0  0  0  0  0  0  0  0  0  0  0  0
    9.9969   -4.8021   19.8163 C   0  0  0  0  0  0  0  0  0  0  0  0
    0.6696  -11.4638   20.2318 C   0  0  0  0  0  0  0  0  0  0  0  0
    3.2711   -9.9993   17.8135 C   0  0  0  0  0  0  0  0  0  0  0  0
    9.7181   -4.3517   17.3942 C   0  0  0  0  0  0  0  0  0  0  0  0
    9.4481   -5.1055   18.4230 C   0  0  0  0  0  0  0  0  0  0  0  0
    6.7501   -6.4053   15.1295 C   0  0  0  0  0  0  0  0  0  0  0  0
    7.7231   -6.4677   17.1901 C   0  0  0  0  0  0  0  0  0  0  0  0
    3.8252  -10.2884   18.7087 N   0  0  0  0  0  0  0  0  0  0  0  0
   11.3245   -3.3655   21.3892 C   0  0  0  0  0  0  0  0  0  0  0  0
    1.3116  -11.6948   21.1562 C   0  0  0  0  0  0  0  0  0  0  0  0
    4.5799   -8.7748   17.5188 C   0  0  0  0  0  0  0  0  0  0  0  0
    3.4321   -9.0308   17.1348 C   0  0  0  0  0  0  0  0  0  0  0  0
    9.4602   -4.1894   15.9582 C   0  0  0  0  0  0  0  0  0  0  0  0
   11.1042   -2.9992   18.9435 C   0  0  0  0  0  0  0  0  0  0  0  0
    1.3292   -9.3536   16.2904 C   0  0  0  0  0  0  0  0  0  0  0  0
   -0.5603  -10.6863   22.4040 C   0  0  0  0  0  0  0  0  0  0  0  0
   -0.5333  -10.6802   19.9265 C   0  0  0  0  0  0  0  0  0  0  0  0
    1.3415  -11.6704   18.8842 O   0  0  0  0  0  0  0  0  0  0  0  0
    2.6848   -8.7021   16.0250 C   0  0  0  0  0  0  0  0  0  0  0  0
   10.9422   -3.7400   19.8424 C   0  0  0  0  0  0  0  0  0  0  0  0
    1.7473  -10.8545   17.8771 C   0  0  0  0  0  0  0  0  0  0  0  0
    5.6930   -7.3076   15.6584 C   0  0  0  0  0  0  0  0  0  0  0  0
   10.9892   -4.4485   22.0826 He  0  0  0  0  0  0  0  0  0  0  0  0
    5.8894   -7.6209   16.8939 He  0  0  0  0  0  0  0  0  0  0  0  0
   -1.2269  -10.3803   21.3606 He  0  0  0  0  0  0  0  0  0  0  0  0
    7.7989   -5.8587   16.2595 He  0  0  0  0  0  0  0  0  0  0  0  0
  1 10  4  0
  2 21  4  0
  2 23  1  0
  3  8  3  0
  3 23  4  0
  3 28  1  0
  3 29  3  0
  4 24  4  0
  4 25  4  0
  5 19  4  0
  6 12  4  0
  6 22  4  0
  7 11  4  0
  7 15  3  0
  7 25  4  0
  8 13  4  0
  8 15  4  0
  8 19  4  0
  9 13  4  0
  9 19  1  0
 10 18  4  0
 10 25  4  0
 10 26  1  0
 11 16  4  0
 11 20  4  0
 11 29  4  0
 12 13  4  0
 12 21  4  0
 14 21  4  0
 14 28  1  0
 14 30  4  0
 15 27  4  0
 16 22  1  0
 16 24  4  0
 17 28  1  0
 19 20  4  0
 19 29  1  0
 20 27  4  0
 21 30  2  0
 22 27  1  0
 22 28  4  0
 23 27  4  0
 26 29  1  0
M  END
$$$$

 Created by Python create_sdf_string function

 34 39  0  0  0  0  0  0  0  0999 V2000
   11.8072   -2.3981   21.6016 O   0  0  0  0  0  0  0  0  0  0  0  0
    8.4587   -5.0539   15.6040 C   0  0  0  0  0  0  0  0  0  0  0  0
   11.0101   -4.4094   22.2000 O   0  0  0  0  0  0  0  0  0  0  0  0
    0.8840  -10.3250   16.9483 N   0  0  0  0  0  0  0  0  0  0  0  0
    0.6448  -11.3752   22.4201 C   0  0  0  0  0  0  0  0  0  0  0  0
    5.0271   -9.6716   18.4191 C   0  0  0  0  0  0  0  0  0  0  0  0
   10.8265   -3.1945   17.6184 C   0  0  0  0  0  0  0  0  0  0  0  0
    6.7514   -7.4164   17.7664 C   0  0  0  0  0  0  0  0  0  0  0  0
    8.5811   -6.0188   18.2721 O   0  0  0  0  0  0  0  0  0  0  0  0
    9.9803   -4.8219   19.7139 C   0  0  0  0  0  0  0  0  0  0  0  0
    0.6940  -11.3568   20.0413 C   0  0  0  0  0  0  0  0  0  0  0  0
    3.0083  -10.1782   17.9307 C   0  0  0  0  0  0  0  0  0  0  0  0
    9.8836   -4.2147   17.3938 C   0  0  0  0  0  0  0  0  0  0  0  0
    9.4661   -5.0287   18.4210 C   0  0  0  0  0  0  0  0  0  0  0  0
    6.6856   -6.4364   15.2431 C   0  0  0  0  0  0  0  0  0  0  0  0
    5.7415   -7.8536   16.9203 C   0  0  0  0  0  0  0  0  0  0  0  0
    7.6866   -6.4465   17.3906 C   0  0  0  0  0  0  0  0  0  0  0  0
    4.0209  -10.5033   18.7208 N   0  0  0  0  0  0  0  0  0  0  0  0
   11.2649   -3.4665   21.3142 C   0  0  0  0  0  0  0  0  0  0  0  0
    1.2651  -11.6857   21.2347 C   0  0  0  0  0  0  0  0  0  0  0  0
    4.7726   -8.8318   17.3826 C   0  0  0  0  0  0  0  0  0  0  0  0
   -1.1656  -10.4212   21.2355 C   0  0  0  0  0  0  0  0  0  0  0  0
    3.4332   -9.1549   17.0309 C   0  0  0  0  0  0  0  0  0  0  0  0
    9.4372   -4.3102   16.0942 C   0  0  0  0  0  0  0  0  0  0  0  0
   11.2444   -2.9323   18.9194 C   0  0  0  0  0  0  0  0  0  0  0  0
    1.2944   -9.3510   16.0470 C   0  0  0  0  0  0  0  0  0  0  0  0
   -0.5594  -10.7337   22.4272 C   0  0  0  0  0  0  0  0  0  0  0  0
    7.6453   -5.9694   16.1109 C   0  0  0  0  0  0  0  0  0  0  0  0
   -0.5356  -10.7407   20.0553 C   0  0  0  0  0  0  0  0  0  0  0  0
    1.3487  -11.7165   18.8098 O   0  0  0  0  0  0  0  0  0  0  0  0
    2.5322   -8.7053   16.1220 C   0  0  0  0  0  0  0  0  0  0  0  0
   10.8398   -3.7379   19.9537 C   0  0  0  0  0  0  0  0  0  0  0  0
    1.7388  -10.7095   17.9178 C   0  0  0  0  0  0  0  0  0  0  0  0
    5.7201   -7.3184   15.6972 C   0  0  0  0  0  0  0  0  0  0  0  0
  1 19  2  0
  2 24  4  0
  2 28  4  0
  3 19  1  0
  4 26  4  0
  4 33  4  0
  5 20  4  0
  5 27  4  0
  6 18  4  0
  6 21  4  0
  7 13  4  0
  7 25  4  0
  8 16  4  0
  8 17  4  0
  9 14  4  0
  9 17  4  0
 10 14  4  0
 10 32  4  0
 11 20  4  0
 11 29  4  0
 11 30  1  0
 12 18  4  0
 12 23  4  0
 12 33  4  0
 13 14  4  0
 13 24  4  0
 15 28  4  0
 15 34  4  0
 16 21  1  0
 16 34  4  0
 17 28  4  0
 19 32  1  0
 21 23  4  0
 22 27  4  0
 22 29  4  0
 23 31  4  0
 25 32  4  0
 26 31  4  0
 30 33  1  0
M  END
$$$$

 Created by Python create_sdf_string function

 34 58  0  0  0  0  0  0  0  0999 V2000
   11.8229   -2.3959   21.7162 O   0  0  0  0  0  0  0  0  0  0  0  0
    8.3709   -5.1575   15.5436 C   0  0  0  0  0  0  0  0  0  0  0  0
   10.8846   -4.3581   22.1458 O   0  0  0  0  0  0  0  0  0  0  0  0
    0.9623  -10.1186   16.9362 N   0  0  0  0  0  0  0  0  0  0  0  0
    4.9546   -9.7018   18.4561 C   0  0  0  0  0  0  0  0  0  0  0  0
   10.7833   -3.2739   17.6945 C   0  0  0  0  0  0  0  0  0  0  0  0
    6.8073   -7.4585   17.4720 O   0  0  0  0  0  0  0  0  0  0  0  0
    8.6446   -5.8177   18.3167 O   0  0  0  0  0  0  0  0  0  0  0  0
    9.7909   -4.7557   19.7829 C   0  0  0  0  0  0  0  0  0  0  0  0
    0.7426  -11.3711   19.9942 C   0  0  0  0  0  0  0  0  0  0  0  0
    2.9002  -10.0913   17.7027 C   0  0  0  0  0  0  0  0  0  0  0  0
    9.9369   -4.2097   17.3551 C   0  0  0  0  0  0  0  0  0  0  0  0
    9.5476   -5.0191   18.3954 C   0  0  0  0  0  0  0  0  0  0  0  0
    6.6982   -6.3718   15.1822 C   0  0  0  0  0  0  0  0  0  0  0  0
    5.6465   -7.6657   17.1005 Cl  0  0  0  0  0  0  0  0  0  0  0  0
    7.5650   -6.4660   17.3342 C   0  0  0  0  0  0  0  0  0  0  0  0
    3.9937  -10.8893   18.5125 N   0  0  0  0  0  0  0  0  0  0  0  0
   11.2093   -3.6904   21.4009 C   0  0  0  0  0  0  0  0  0  0  0  0
    1.5297  -11.6125   21.0782 C   0  0  0  0  0  0  0  0  0  0  0  0
    4.7025   -8.9169   17.4939 C   0  0  0  0  0  0  0  0  0  0  0  0
   -1.2197  -10.3485   21.1734 C   0  0  0  0  0  0  0  0  0  0  0  0
    9.5137   -4.3812   16.1293 C   0  0  0  0  0  0  0  0  0  0  0  0
   11.1437   -3.0511   19.0139 C   0  0  0  0  0  0  0  0  0  0  0  0
    1.0181   -9.2823   16.1938 C   0  0  0  0  0  0  0  0  0  0  0  0
   -0.6050  -10.6996   22.4075 C   0  0  0  0  0  0  0  0  0  0  0  0
    7.3673   -5.8975   16.0951 C   0  0  0  0  0  0  0  0  0  0  0  0
   -0.5495  -10.5165   19.9101 C   0  0  0  0  0  0  0  0  0  0  0  0
    1.1899  -11.6810   18.8304 O   0  0  0  0  0  0  0  0  0  0  0  0
    2.5151   -8.9273   16.1725 C   0  0  0  0  0  0  0  0  0  0  0  0
   10.8336   -3.6209   19.9608 C   0  0  0  0  0  0  0  0  0  0  0  0
    1.7184  -10.8353   17.9148 C   0  0  0  0  0  0  0  0  0  0  0  0
    5.7238   -7.3089   15.6378 C   0  0  0  0  0  0  0  0  0  0  0  0
    0.5877  -11.2959   22.4220 He  0  0  0  0  0  0  0  0  0  0  0  0
    3.3403   -8.9348   16.9146 He  0  0  0  0  0  0  0  0  0  0  0  0
  1  7  2  0
  1 18  2  0
  2  4  4  0
  2 22  4  0
  2 26  4  0
  3 18  1  0
  4 24  4  0
  4 31  4  0
  5 17  4  0
  5 20  4  0
  5 25  3  0
  5 29  2  0
  6 12  4  0
  6 17  1  0
  6 23  4  0
  7 11  4  0
  7 15  4  0
  7 16  4  0
  7 21  1  0
  7 28  4  0
  8 11  1  0
  8 13  4  0
  8 16  4  0
  9 13  4  0
  9 30  4  0
 10 19  4  0
 10 27  4  0
 11 17  4  0
 11 19  2  0
 11 24  1  0
 11 31  4  0
 12 13  4  0
 12 22  4  0
 12 24  4  0
 13 21  2  0
 13 31  4  0
 14 21  4  0
 14 26  4  0
 14 32  4  0
 15 20  1  0
 15 28  2  0
 15 32  4  0
 16 26  4  0
 18 30  1  0
 18 31  2  0
 20 25  3  0
 21 25  4  0
 21 27  4  0
 21 29  4  0
 22 23  3  0
 22 25  4  0
 22 27  1  0
 23 30  4  0
 24 29  4  0
 28 31  1  0
 30 31  3  0
 30 32  4  0
 31 32  3  0
M  END
$$$$

 Created by Python create_sdf_string function

 34 39  0  0  0  0  0  0  0  0999 V2000
   11.8341   -2.4620   21.6830 O   0  0  0  0  0  0  0  0  0  0  0  0
    8.4324   -5.0367   15.5860 C   0  0  0  0  0  0  0  0  0  0  0  0
   10.8817   -4.3765   22.2173 O   0  0  0  0  0  0  0  0  0  0  0  0
    0.7683  -10.2335   16.9535 N   0  0  0  0  0  0  0  0  0  0  0  0
    0.6621  -11.3284   22.3562 C   0  0  0  0  0  0  0  0  0  0  0  0
    5.0120   -9.7537   18.3526 C   0  0  0  0  0  0  0  0  0  0  0  0
   10.8354   -3.2367   17.6348 C   0  0  0  0  0  0  0  0  0  0  0  0
    6.6861   -7.3952   17.7117 C   0  0  0  0  0  0  0  0  0  0  0  0
    8.5232   -5.9878   18.2659 O   0  0  0  0  0  0  0  0  0  0  0  0
    9.9071   -4.7860   19.7344 C   0  0  0  0  0  0  0  0  0  0  0  0
    0.6697  -11.2960   19.9808 C   0  0  0  0  0  0  0  0  0  0  0  0
    2.9582  -10.2338   17.8455 C   0  0  0  0  0  0  0  0  0  0  0  0
    9.8962   -4.2286   17.4108 C   0  0  0  0  0  0  0  0  0  0  0  0
    9.4442   -5.0022   18.4667 C   0  0  0  0  0  0  0  0  0  0  0  0
    6.5752   -6.4047   15.2259 C   0  0  0  0  0  0  0  0  0  0  0  0
    5.6933   -7.8665   16.9146 C   0  0  0  0  0  0  0  0  0  0  0  0
    7.6332   -6.4328   17.3340 C   0  0  0  0  0  0  0  0  0  0  0  0
    3.9902  -10.6156   18.6372 N   0  0  0  0  0  0  0  0  0  0  0  0
   11.2002   -3.4832   21.3608 C   0  0  0  0  0  0  0  0  0  0  0  0
    1.2710  -11.6095   21.1500 C   0  0  0  0  0  0  0  0  0  0  0  0
    4.7413   -8.8668   17.3697 C   0  0  0  0  0  0  0  0  0  0  0  0
   -1.1787  -10.3624   21.1936 C   0  0  0  0  0  0  0  0  0  0  0  0
    3.3778   -9.1860   16.9912 N   0  0  0  0  0  0  0  0  0  0  0  0
    9.4518   -4.3608   16.1211 C   0  0  0  0  0  0  0  0  0  0  0  0
   11.2079   -2.9387   18.9482 C   0  0  0  0  0  0  0  0  0  0  0  0
    1.1980   -9.2498   16.0655 C   0  0  0  0  0  0  0  0  0  0  0  0
   -0.5719  -10.7136   22.3703 C   0  0  0  0  0  0  0  0  0  0  0  0
    7.5847   -5.9652   16.0631 C   0  0  0  0  0  0  0  0  0  0  0  0
   -0.5445  -10.6545   20.0014 C   0  0  0  0  0  0  0  0  0  0  0  0
    1.2667  -11.7075   18.7377 O   0  0  0  0  0  0  0  0  0  0  0  0
    2.4816   -8.6943   16.1392 C   0  0  0  0  0  0  0  0  0  0  0  0
   10.7904   -3.7288   19.9932 C   0  0  0  0  0  0  0  0  0  0  0  0
    1.6589  -10.7038   17.8441 C   0  0  0  0  0  0  0  0  0  0  0  0
    5.6244   -7.3319   15.6905 C   0  0  0  0  0  0  0  0  0  0  0  0
  1 19  2  0
  2 24  4  0
  2 28  4  0
  3 19  1  0
  4 26  4  0
  4 33  4  0
  5 20  4  0
  5 27  4  0
  6 18  4  0
  6 21  4  0
  7 13  4  0
  7 25  4  0
  8 16  4  0
  8 17  4  0
  9 14  4  0
  9 17  4  0
 10 14  4  0
 10 32  4  0
 11 20  4  0
 11 29  4  0
 11 30  1  0
 12 18  4  0
 12 23  4  0
 12 33  4  0
 13 14  4  0
 13 24  4  0
 15 28  4  0
 15 34  4  0
 16 21  1  0
 16 34  4  0
 17 28  4  0
 19 32  1  0
 21 23  4  0
 22 27  4  0
 22 29  4  0
 23 31  4  0
 25 32  4  0
 26 31  4  0
 30 33  1  0
M  END
$$$$

 Created by Python create_sdf_string function

 34 53  0  0  0  0  0  0  0  0999 V2000
   11.8485   -2.3651   21.6950 O   0  0  0  0  0  0  0  0  0  0  0  0
    8.4334   -5.0000   15.6993 C   0  0  0  0  0  0  0  0  0  0  0  0
   10.7324   -4.3084   22.1534 O   0  0  0  0  0  0  0  0  0  0  0  0
    0.8318  -10.2172   16.6965 N   0  0  0  0  0  0  0  0  0  0  0  0
    0.6445  -11.3482   22.5733 C   0  0  0  0  0  0  0  0  0  0  0  0
    4.8814   -9.6960   18.2522 C   0  0  0  0  0  0  0  0  0  0  0  0
   10.8789   -3.2139   17.6321 C   0  0  0  0  0  0  0  0  0  0  0  0
    6.7061   -7.4581   17.6780 N   0  0  0  0  0  0  0  0  0  0  0  0
    8.3460   -5.9547   18.3463 O   0  0  0  0  0  0  0  0  0  0  0  0
    9.9192   -4.8226   19.7439 C   0  0  0  0  0  0  0  0  0  0  0  0
    0.6598  -11.4595   20.0223 C   0  0  0  0  0  0  0  0  0  0  0  0
    3.0500  -10.0733   17.7979 F   0  0  0  0  0  0  0  0  0  0  0  0
    9.3250   -5.0588   18.6146 C   0  0  0  0  0  0  0  0  0  0  0  0
    6.5583   -6.2420   15.3991 C   0  0  0  0  0  0  0  0  0  0  0  0
    5.7335   -8.0241   16.8989 C   0  0  0  0  0  0  0  0  0  0  0  0
    7.7069   -6.5251   17.2709 C   0  0  0  0  0  0  0  0  0  0  0  0
    3.9501  -10.8379   18.6583 N   0  0  0  0  0  0  0  0  0  0  0  0
   11.2208   -3.4104   21.5207 P   0  0  0  0  0  0  0  0  0  0  0  0
    4.8232   -8.8921   17.2905 C   0  0  0  0  0  0  0  0  0  0  0  0
   -1.0680  -10.3889   21.0972 C   0  0  0  0  0  0  0  0  0  0  0  0
    3.4662   -9.1940   16.8529 N   0  0  0  0  0  0  0  0  0  0  0  0
    9.3820   -4.3743   16.1692 Cl  0  0  0  0  0  0  0  0  0  0  0  0
   11.3511   -3.0685   19.0294 O   0  0  0  0  0  0  0  0  0  0  0  0
    1.3772   -9.1853   16.1991 C   0  0  0  0  0  0  0  0  0  0  0  0
   -0.5151  -10.6612   22.6021 Cl  0  0  0  0  0  0  0  0  0  0  0  0
   -0.7461  -10.7807   19.9858 C   0  0  0  0  0  0  0  0  0  0  0  0
    1.3058  -11.6772   18.7343 O   0  0  0  0  0  0  0  0  0  0  0  0
    2.5111   -8.6593   16.1799 C   0  0  0  0  0  0  0  0  0  0  0  0
   10.9210   -3.8506   19.9510 C   0  0  0  0  0  0  0  0  0  0  0  0
    1.5278  -10.7764   17.7670 C   0  0  0  0  0  0  0  0  0  0  0  0
    5.5349   -7.2617   15.6569 C   0  0  0  0  0  0  0  0  0  0  0  0
    9.8496   -4.2255   17.4150 He  0  0  0  0  0  0  0  0  0  0  0  0
    1.2147  -11.6895   21.1083 He  0  0  0  0  0  0  0  0  0  0  0  0
    7.5628   -6.0372   15.8238 He  0  0  0  0  0  0  0  0  0  0  0  0
  1 11  3  0
  1 15  2  0
  1 18  2  0
  2 22  4  0
  3  8  2  0
  3  9  1  0
  3 18  2  0
  4 24  4  0
  4 30  4  0
  4 31  1  0
  5 12  2  0
  5 14  4  0
  5 25  4  0
  6 17  4  0
  6 19  4  0
  6 26  3  0
  7 23  1  0
  7 30  1  0
  8 15  4  0
  8 16  4  0
  8 24  1  0
  8 25  2  0
  8 29  2  0
  9 13  4  0
  9 14  3  0
  9 31  2  0
 10 13  4  0
 10 29  4  0
 11 14  1  0
 11 26  4  0
 11 27  1  0
 12 17  4  0
 12 21  4  0
 12 28  4  0
 12 30  4  0
 14 27  3  0
 14 31  4  0
 15 19  1  0
 15 30  1  0
 15 31  4  0
 17 20  2  0
 18 22  2  0
 18 29  1  0
 18 30  3  0
 19 21  4  0
 20 26  4  0
 21 28  4  0
 21 30  2  0
 23 29  4  0
 24 26  4  0
 24 28  4  0
 27 30  1  0
 28 29  4  0
M  END
$$$$

 Created by Python create_sdf_string function

 34 39  0  0  0  0  0  0  0  0999 V2000
   11.8502   -2.4064   21.6556 O   0  0  0  0  0  0  0  0  0  0  0  0
    8.4521   -5.0439   15.6513 C   0  0  0  0  0  0  0  0  0  0  0  0
   10.7711   -4.2975   22.3148 O   0  0  0  0  0  0  0  0  0  0  0  0
    0.7798  -10.2019   16.9083 N   0  0  0  0  0  0  0  0  0  0  0  0
    0.6746  -11.3686   22.3747 C   0  0  0  0  0  0  0  0  0  0  0  0
    5.0042   -9.8249   18.2900 C   0  0  0  0  0  0  0  0  0  0  0  0
   10.8545   -3.2797   17.6757 C   0  0  0  0  0  0  0  0  0  0  0  0
    6.7477   -7.5180   17.6762 C   0  0  0  0  0  0  0  0  0  0  0  0
    8.4950   -6.0429   18.2734 O   0  0  0  0  0  0  0  0  0  0  0  0
    9.8995   -4.8212   19.7651 C   0  0  0  0  0  0  0  0  0  0  0  0
    0.6280  -11.3596   19.9820 C   0  0  0  0  0  0  0  0  0  0  0  0
    2.9363  -10.2165   17.8157 C   0  0  0  0  0  0  0  0  0  0  0  0
    9.8778   -4.2424   17.4774 C   0  0  0  0  0  0  0  0  0  0  0  0
    9.4225   -5.0441   18.4900 C   0  0  0  0  0  0  0  0  0  0  0  0
    6.5609   -6.3512   15.2312 C   0  0  0  0  0  0  0  0  0  0  0  0
    5.6898   -7.9088   16.8842 C   0  0  0  0  0  0  0  0  0  0  0  0
    7.6043   -6.4792   17.3660 C   0  0  0  0  0  0  0  0  0  0  0  0
    3.9467  -10.6352   18.6097 N   0  0  0  0  0  0  0  0  0  0  0  0
   11.1925   -3.4744   21.3989 C   0  0  0  0  0  0  0  0  0  0  0  0
    1.2279  -11.6926   21.1550 C   0  0  0  0  0  0  0  0  0  0  0  0
    4.7480   -8.9040   17.3387 C   0  0  0  0  0  0  0  0  0  0  0  0
   -1.1848  -10.4231   21.2301 C   0  0  0  0  0  0  0  0  0  0  0  0
    3.3974   -9.1855   16.9872 N   0  0  0  0  0  0  0  0  0  0  0  0
    9.4055   -4.3051   16.1341 C   0  0  0  0  0  0  0  0  0  0  0  0
   11.3195   -3.0111   18.9936 C   0  0  0  0  0  0  0  0  0  0  0  0
    1.2555   -9.2215   16.0588 C   0  0  0  0  0  0  0  0  0  0  0  0
   -0.5315  -10.6964   22.4022 C   0  0  0  0  0  0  0  0  0  0  0  0
    7.5357   -5.9361   16.0956 C   0  0  0  0  0  0  0  0  0  0  0  0
   -0.6112  -10.7545   20.0246 C   0  0  0  0  0  0  0  0  0  0  0  0
    1.2589  -11.6908   18.7131 C   0  0  0  0  0  0  0  0  0  0  0  0
    2.5522   -8.6897   16.1330 C   0  0  0  0  0  0  0  0  0  0  0  0
   10.8152   -3.7834   19.9929 C   0  0  0  0  0  0  0  0  0  0  0  0
    1.6396  -10.6909   17.8150 C   0  0  0  0  0  0  0  0  0  0  0  0
    5.5932   -7.2976   15.6498 C   0  0  0  0  0  0  0  0  0  0  0  0
  1 19  2  0
  2 24  4  0
  2 28  4  0
  3 19  1  0
  4 26  4  0
  4 33  4  0
  5 20  4  0
  5 27  4  0
  6 18  4  0
  6 21  4  0
  7 13  4  0
  7 25  4  0
  8 16  4  0
  8 17  4  0
  9 14  4  0
  9 17  4  0
 10 14  4  0
 10 32  4  0
 11 20  4  0
 11 29  4  0
 11 30  1  0
 12 18  4  0
 12 23  4  0
 12 33  4  0
 13 14  4  0
 13 24  4  0
 15 28  4  0
 15 34  4  0
 16 21  1  0
 16 34  4  0
 17 28  4  0
 19 32  1  0
 21 23  4  0
 22 27  4  0
 22 29  4  0
 23 31  4  0
 25 32  4  0
 26 31  4  0
 30 33  1  0
M  END
$$$$

 Created by Python create_sdf_string function

 34 49  0  0  0  0  0  0  0  0999 V2000
   11.8447   -2.5525   21.7606 P   0  0  0  0  0  0  0  0  0  0  0  0
    8.5224   -4.8850   15.5472 C   0  0  0  0  0  0  0  0  0  0  0  0
   10.6125   -4.3449   22.3530 O   0  0  0  0  0  0  0  0  0  0  0  0
    0.8024  -10.2151   16.6221 N   0  0  0  0  0  0  0  0  0  0  0  0
    0.6401  -11.3753   22.5828 C   0  0  0  0  0  0  0  0  0  0  0  0
    5.1563  -10.1246   18.4230 C   0  0  0  0  0  0  0  0  0  0  0  0
   10.8564   -3.2267   17.7203 C   0  0  0  0  0  0  0  0  0  0  0  0
    6.8876   -7.5971   17.7145 C   0  0  0  0  0  0  0  0  0  0  0  0
    8.4206   -6.0298   18.3913 O   0  0  0  0  0  0  0  0  0  0  0  0
   10.0609   -4.8619   19.7182 C   0  0  0  0  0  0  0  0  0  0  0  0
    0.7971  -11.4332   19.9335 C   0  0  0  0  0  0  0  0  0  0  0  0
    2.8596   -9.9844   17.9261 C   0  0  0  0  0  0  0  0  0  0  0  0
    9.7360   -4.2552   17.3694 C   0  0  0  0  0  0  0  0  0  0  0  0
    9.3629   -5.0356   18.3930 C   0  0  0  0  0  0  0  0  0  0  0  0
    6.6204   -6.1435   15.3069 C   0  0  0  0  0  0  0  0  0  0  0  0
    5.6635   -8.1559   17.0901 C   0  0  0  0  0  0  0  0  0  0  0  0
    7.7087   -6.4571   17.4010 C   0  0  0  0  0  0  0  0  0  0  0  0
    3.8614  -10.7757   18.6684 N   0  0  0  0  0  0  0  0  0  0  0  0
   11.2239   -3.3560   21.4710 C   0  0  0  0  0  0  0  0  0  0  0  0
    1.1263  -11.6768   21.1766 C   0  0  0  0  0  0  0  0  0  0  0  0
    4.7462   -8.9135   17.1493 Br  0  0  0  0  0  0  0  0  0  0  0  0
   -1.0493  -10.2685   21.2257 C   0  0  0  0  0  0  0  0  0  0  0  0
    3.3349   -9.1536   16.7576 N   0  0  0  0  0  0  0  0  0  0  0  0
    9.3554   -4.4381   16.3157 C   0  0  0  0  0  0  0  0  0  0  0  0
   11.3930   -2.9884   18.9784 C   0  0  0  0  0  0  0  0  0  0  0  0
    1.1695   -9.2256   16.0095 C   0  0  0  0  0  0  0  0  0  0  0  0
   -0.4863  -10.6704   22.3336 C   0  0  0  0  0  0  0  0  0  0  0  0
    7.3802   -5.8612   16.0265 C   0  0  0  0  0  0  0  0  0  0  0  0
   -0.7244  -10.8392   20.0147 N   0  0  0  0  0  0  0  0  0  0  0  0
    1.1627  -11.5759   18.6488 C   0  0  0  0  0  0  0  0  0  0  0  0
    2.4536   -8.7106   16.2178 C   0  0  0  0  0  0  0  0  0  0  0  0
   10.9316   -3.8340   20.0556 C   0  0  0  0  0  0  0  0  0  0  0  0
    1.6398  -10.6211   17.8177 C   0  0  0  0  0  0  0  0  0  0  0  0
    5.5699   -7.3031   15.6768 C   0  0  0  0  0  0  0  0  0  0  0  0
  1 19  2  0
  2 24  4  0
  2 27  3  0
  2 28  4  0
  3 10  1  0
  3 19  1  0
  3 26  4  0
  4 25  4  0
  4 26  4  0
  4 33  4  0
  5 12  3  0
  5 20  4  0
  5 27  3  0
  6 18  4  0
  7 25  4  0
  8 16  4  0
  8 17  4  0
  9 13  4  0
  9 14  4  0
  9 17  4  0
 10 14  4  0
 10 32  4  0
 11 20  4  0
 11 29  4  0
 11 30  1  0
 12 13  3  0
 12 18  4  0
 12 23  2  0
 13 14  4  0
 13 24  4  0
 14 26  1  0
 15 19  4  0
 15 28  4  0
 15 32  2  0
 15 34  4  0
 16 21  1  0
 16 34  4  0
 17 28  4  0
 18 26  3  0
 19 28  2  0
 19 32  1  0
 19 34  1  0
 21 23  4  0
 22 27  4  0
 22 29  4  0
 23 31  4  0
 25 30  2  0
 26 31  4  0
 27 33  2  0
M  END
$$$$

 Created by Python create_sdf_string function

 34 39  0  0  0  0  0  0  0  0999 V2000
   11.8971   -2.4886   21.7237 O   0  0  0  0  0  0  0  0  0  0  0  0
    8.3801   -4.9722   15.6485 C   0  0  0  0  0  0  0  0  0  0  0  0
   10.6801   -4.2908   22.3008 O   0  0  0  0  0  0  0  0  0  0  0  0
    0.7656  -10.1784   16.8304 N   0  0  0  0  0  0  0  0  0  0  0  0
    0.6591  -11.3872   22.3988 C   0  0  0  0  0  0  0  0  0  0  0  0
    5.0280   -9.9254   18.2857 C   0  0  0  0  0  0  0  0  0  0  0  0
   10.8637   -3.2313   17.6897 C   0  0  0  0  0  0  0  0  0  0  0  0
    6.7864   -7.5467   17.7157 C   0  0  0  0  0  0  0  0  0  0  0  0
    8.5393   -6.0251   18.3233 O   0  0  0  0  0  0  0  0  0  0  0  0
    9.9582   -4.8374   19.7774 C   0  0  0  0  0  0  0  0  0  0  0  0
    0.5863  -11.3397   19.9746 C   0  0  0  0  0  0  0  0  0  0  0  0
    2.9331  -10.2306   17.8204 C   0  0  0  0  0  0  0  0  0  0  0  0
    9.8828   -4.2376   17.4661 C   0  0  0  0  0  0  0  0  0  0  0  0
    9.4672   -5.0433   18.5058 C   0  0  0  0  0  0  0  0  0  0  0  0
    6.5099   -6.3401   15.3121 C   0  0  0  0  0  0  0  0  0  0  0  0
    5.7185   -7.9814   16.9269 C   0  0  0  0  0  0  0  0  0  0  0  0
    7.6534   -6.4793   17.4058 C   0  0  0  0  0  0  0  0  0  0  0  0
    3.9213  -10.6573   18.6262 N   0  0  0  0  0  0  0  0  0  0  0  0
   11.1940   -3.4796   21.4161 C   0  0  0  0  0  0  0  0  0  0  0  0
    1.2082  -11.7073   21.1722 C   0  0  0  0  0  0  0  0  0  0  0  0
    4.7564   -8.9709   17.3467 C   0  0  0  0  0  0  0  0  0  0  0  0
   -1.1533  -10.3688   21.2191 C   0  0  0  0  0  0  0  0  0  0  0  0
    3.4168   -9.1914   16.9970 N   0  0  0  0  0  0  0  0  0  0  0  0
    9.3942   -4.2860   16.2231 C   0  0  0  0  0  0  0  0  0  0  0  0
   11.3111   -2.9783   18.9907 C   0  0  0  0  0  0  0  0  0  0  0  0
    1.2487   -9.1972   15.9825 C   0  0  0  0  0  0  0  0  0  0  0  0
   -0.5201  -10.6719   22.4033 C   0  0  0  0  0  0  0  0  0  0  0  0
    7.5413   -5.9290   16.1537 C   0  0  0  0  0  0  0  0  0  0  0  0
   -0.6087  -10.7089   20.0234 C   0  0  0  0  0  0  0  0  0  0  0  0
    1.1541  -11.6728   18.6684 C   0  0  0  0  0  0  0  0  0  0  0  0
    2.5694   -8.6879   16.1302 C   0  0  0  0  0  0  0  0  0  0  0  0
   10.8448   -3.7776   20.0274 C   0  0  0  0  0  0  0  0  0  0  0  0
    1.5974  -10.6716   17.7691 C   0  0  0  0  0  0  0  0  0  0  0  0
    5.6292   -7.3170   15.7380 C   0  0  0  0  0  0  0  0  0  0  0  0
  1 19  2  0
  2 24  4  0
  2 28  4  0
  3 19  1  0
  4 26  4  0
  4 33  4  0
  5 20  4  0
  5 27  4  0
  6 18  4  0
  6 21  4  0
  7 13  4  0
  7 25  4  0
  8 16  4  0
  8 17  4  0
  9 14  4  0
  9 17  4  0
 10 14  4  0
 10 32  4  0
 11 20  4  0
 11 29  4  0
 11 30  1  0
 12 18  4  0
 12 23  4  0
 12 33  4  0
 13 14  4  0
 13 24  4  0
 15 28  4  0
 15 34  4  0
 16 21  1  0
 16 34  4  0
 17 28  4  0
 19 32  1  0
 21 23  4  0
 22 27  4  0
 22 29  4  0
 23 31  4  0
 25 32  4  0
 26 31  4  0
 30 33  1  0
M  END
$$$$

 Created by Python create_sdf_string function

 34 47  0  0  0  0  0  0  0  0999 V2000
   11.8432   -2.4433   21.6389 F   0  0  0  0  0  0  0  0  0  0  0  0
    8.2550   -4.9495   15.7366 C   0  0  0  0  0  0  0  0  0  0  0  0
   10.7802   -4.0966   22.3639 O   0  0  0  0  0  0  0  0  0  0  0  0
    0.6164  -10.1609   16.7953 N   0  0  0  0  0  0  0  0  0  0  0  0
    0.7053  -11.5599   22.5821 C   0  0  0  0  0  0  0  0  0  0  0  0
    5.1444  -10.0914   18.2599 C   0  0  0  0  0  0  0  0  0  0  0  0
   10.9127   -3.3267   17.6616 C   0  0  0  0  0  0  0  0  0  0  0  0
    6.6580   -7.5784   17.8546 C   0  0  0  0  0  0  0  0  0  0  0  0
    8.6983   -6.0311   18.1114 O   0  0  0  0  0  0  0  0  0  0  0  0
    9.9265   -4.7165   19.7801 C   0  0  0  0  0  0  0  0  0  0  0  0
    0.6742  -11.2674   19.9932 C   0  0  0  0  0  0  0  0  0  0  0  0
    2.9743  -10.2786   17.7529 C   0  0  0  0  0  0  0  0  0  0  0  0
    9.8625   -4.1611   17.4458 C   0  0  0  0  0  0  0  0  0  0  0  0
    9.4552   -5.1735   18.3932 C   0  0  0  0  0  0  0  0  0  0  0  0
    6.5982   -6.0513   15.2753 C   0  0  0  0  0  0  0  0  0  0  0  0
    5.7069   -7.8927   16.9939 C   0  0  0  0  0  0  0  0  0  0  0  0
    7.7244   -6.3794   17.3856 C   0  0  0  0  0  0  0  0  0  0  0  0
   11.2087   -3.5506   21.4749 C   0  0  0  0  0  0  0  0  0  0  0  0
    1.3148  -11.6508   21.2849 C   0  0  0  0  0  0  0  0  0  0  0  0
    4.7383   -8.8106   17.2956 C   0  0  0  0  0  0  0  0  0  0  0  0
   -1.1610  -10.4642   21.2827 C   0  0  0  0  0  0  0  0  0  0  0  0
    3.3573   -9.1805   16.9201 N   0  0  0  0  0  0  0  0  0  0  0  0
    9.4644   -4.2983   16.3034 C   0  0  0  0  0  0  0  0  0  0  0  0
   11.4318   -2.9814   18.7948 C   0  0  0  0  0  0  0  0  0  0  0  0
    1.1663   -9.1776   16.0166 C   0  0  0  0  0  0  0  0  0  0  0  0
   -0.5810  -10.7301   22.2423 C   0  0  0  0  0  0  0  0  0  0  0  0
    7.6017   -5.7989   16.2739 C   0  0  0  0  0  0  0  0  0  0  0  0
   -0.5281  -10.7477   19.9268 C   0  0  0  0  0  0  0  0  0  0  0  0
    1.2467  -11.6911   18.6426 C   0  0  0  0  0  0  0  0  0  0  0  0
    2.8136   -8.7371   16.1477 C   0  0  0  0  0  0  0  0  0  0  0  0
   10.9705   -3.8088   19.8732 C   0  0  0  0  0  0  0  0  0  0  0  0
    1.6655  -10.5919   17.8081 C   0  0  0  0  0  0  0  0  0  0  0  0
    5.5141   -7.3723   15.8115 C   0  0  0  0  0  0  0  0  0  0  0  0
    3.8105  -10.5750   18.8410 He  0  0  0  0  0  0  0  0  0  0  0  0
  1 26  3  0
  2 16  4  0
  2 23  4  0
  2 28  4  0
  3 13  3  0
  3 18  1  0
  4 25  4  0
  4 31  4  0
  4 32  4  0
  5 19  4  0
  5 26  4  0
  5 27  1  0
  6 20  4  0
  7 24  4  0
  8 16  4  0
  8 17  4  0
  9 14  4  0
  9 17  4  0
 10 14  4  0
 10 31  4  0
 11 19  4  0
 11 28  4  0
 11 29  1  0
 12 22  4  0
 12 32  4  0
 13 14  4  0
 13 23  4  0
 14 21  4  0
 14 28  1  0
 15 27  4  0
 15 33  4  0
 16 30  3  0
 16 33  4  0
 17 18  2  0
 17 27  4  0
 18 31  1  0
 19 22  4  0
 20 22  4  0
 21 26  4  0
 21 28  4  0
 22 30  4  0
 22 33  3  0
 23 29  3  0
 24 31  4  0
 25 30  4  0
 26 33  1  0
 29 32  1  0
M  END
$$$$

 Created by Python create_sdf_string function

 34 39  0  0  0  0  0  0  0  0999 V2000
   11.8798   -2.4564   21.6155 O   0  0  0  0  0  0  0  0  0  0  0  0
    8.3386   -4.9372   15.7240 C   0  0  0  0  0  0  0  0  0  0  0  0
   10.7671   -4.1621   22.2985 O   0  0  0  0  0  0  0  0  0  0  0  0
    0.8084  -10.1440   16.8772 N   0  0  0  0  0  0  0  0  0  0  0  0
    0.6768  -11.4496   22.4096 C   0  0  0  0  0  0  0  0  0  0  0  0
    5.0469   -9.8864   18.3572 C   0  0  0  0  0  0  0  0  0  0  0  0
   10.9250   -3.2499   17.6250 C   0  0  0  0  0  0  0  0  0  0  0  0
    6.7644   -7.5138   17.7833 C   0  0  0  0  0  0  0  0  0  0  0  0
    8.6169   -6.0277   18.2901 O   0  0  0  0  0  0  0  0  0  0  0  0
    9.9918   -4.8205   19.7443 C   0  0  0  0  0  0  0  0  0  0  0  0
    0.6488  -11.3429   19.9950 C   0  0  0  0  0  0  0  0  0  0  0  0
    2.9374  -10.2351   17.8813 C   0  0  0  0  0  0  0  0  0  0  0  0
    9.9421   -4.2108   17.4302 C   0  0  0  0  0  0  0  0  0  0  0  0
    9.5172   -5.0435   18.4736 C   0  0  0  0  0  0  0  0  0  0  0  0
    6.4961   -6.2709   15.3642 C   0  0  0  0  0  0  0  0  0  0  0  0
    5.7166   -7.9054   16.9652 C   0  0  0  0  0  0  0  0  0  0  0  0
    7.6620   -6.4755   17.4404 C   0  0  0  0  0  0  0  0  0  0  0  0
    3.9546  -10.6549   18.6630 N   0  0  0  0  0  0  0  0  0  0  0  0
   11.2209   -3.4582   21.3625 C   0  0  0  0  0  0  0  0  0  0  0  0
    1.2653  -11.6841   21.1792 C   0  0  0  0  0  0  0  0  0  0  0  0
    4.7685   -8.9517   17.3702 C   0  0  0  0  0  0  0  0  0  0  0  0
   -1.1801  -10.4602   21.2276 C   0  0  0  0  0  0  0  0  0  0  0  0
    3.4308   -9.2342   17.0177 N   0  0  0  0  0  0  0  0  0  0  0  0
    9.3923   -4.2348   16.1924 C   0  0  0  0  0  0  0  0  0  0  0  0
   11.3715   -2.9937   18.9108 C   0  0  0  0  0  0  0  0  0  0  0  0
    1.3013   -9.1873   16.0035 C   0  0  0  0  0  0  0  0  0  0  0  0
   -0.5659  -10.8158   22.4018 C   0  0  0  0  0  0  0  0  0  0  0  0
    7.5238   -5.8923   16.1987 C   0  0  0  0  0  0  0  0  0  0  0  0
   -0.5718  -10.7098   20.0400 C   0  0  0  0  0  0  0  0  0  0  0  0
    1.2128  -11.7588   18.6991 C   0  0  0  0  0  0  0  0  0  0  0  0
    2.6273   -8.7378   16.0958 C   0  0  0  0  0  0  0  0  0  0  0  0
   10.8701   -3.7671   19.9747 C   0  0  0  0  0  0  0  0  0  0  0  0
    1.6238  -10.6734   17.8161 C   0  0  0  0  0  0  0  0  0  0  0  0
    5.6105   -7.2479   15.7902 C   0  0  0  0  0  0  0  0  0  0  0  0
  1 19  2  0
  2 24  4  0
  2 28  4  0
  3 19  1  0
  4 26  4  0
  4 33  4  0
  5 20  4  0
  5 27  4  0
  6 18  4  0
  6 21  4  0
  7 13  4  0
  7 25  4  0
  8 16  4  0
  8 17  4  0
  9 14  4  0
  9 17  4  0
 10 14  4  0
 10 32  4  0
 11 20  4  0
 11 29  4  0
 11 30  1  0
 12 18  4  0
 12 23  4  0
 12 33  4  0
 13 14  4  0
 13 24  4  0
 15 28  4  0
 15 34  4  0
 16 21  1  0
 16 34  4  0
 17 28  4  0
 19 32  1  0
 21 23  4  0
 22 27  4  0
 22 29  4  0
 23 31  4  0
 25 32  4  0
 26 31  4  0
 30 33  1  0
M  END
$$$$

 Created by Python create_sdf_string function

 34 59  0  0  0  0  0  0  0  0999 V2000
   11.8276   -2.4150   21.6895 O   0  0  0  0  0  0  0  0  0  0  0  0
    8.3657   -4.9473   15.6054 C   0  0  0  0  0  0  0  0  0  0  0  0
   10.7346   -4.2026   22.4003 O   0  0  0  0  0  0  0  0  0  0  0  0
    0.9082  -10.1053   16.8085 N   0  0  0  0  0  0  0  0  0  0  0  0
    0.7807  -11.4012   22.3804 C   0  0  0  0  0  0  0  0  0  0  0  0
    5.0520   -9.7646   18.3296 C   0  0  0  0  0  0  0  0  0  0  0  0
   10.9607   -3.2061   17.7714 C   0  0  0  0  0  0  0  0  0  0  0  0
    6.7081   -7.6209   17.7851 C   0  0  0  0  0  0  0  0  0  0  0  0
    8.7698   -5.9871   18.3054 O   0  0  0  0  0  0  0  0  0  0  0  0
   10.0712   -4.7774   19.6711 C   0  0  0  0  0  0  0  0  0  0  0  0
    0.8333  -11.4340   20.1323 C   0  0  0  0  0  0  0  0  0  0  0  0
    2.8462  -10.2727   17.8615 C   0  0  0  0  0  0  0  0  0  0  0  0
   10.0466   -4.1898   17.3747 C   0  0  0  0  0  0  0  0  0  0  0  0
    9.5057   -4.9407   18.5960 C   0  0  0  0  0  0  0  0  0  0  0  0
    6.4746   -6.2925   15.3270 C   0  0  0  0  0  0  0  0  0  0  0  0
    5.8506   -7.9206   16.8506 C   0  0  0  0  0  0  0  0  0  0  0  0
    7.7498   -6.4439   17.3280 C   0  0  0  0  0  0  0  0  0  0  0  0
    3.8916  -10.6497   18.6338 O   0  0  0  0  0  0  0  0  0  0  0  0
   11.3175   -3.5071   21.2438 C   0  0  0  0  0  0  0  0  0  0  0  0
    1.2766  -11.6966   21.1089 C   0  0  0  0  0  0  0  0  0  0  0  0
    4.7839   -9.0175   17.3027 C   0  0  0  0  0  0  0  0  0  0  0  0
   -1.0623  -10.4905   21.1994 C   0  0  0  0  0  0  0  0  0  0  0  0
    3.3761   -9.2806   17.1338 N   0  0  0  0  0  0  0  0  0  0  0  0
    9.5133   -4.2580   16.1220 C   0  0  0  0  0  0  0  0  0  0  0  0
   11.4332   -3.0813   18.9885 C   0  0  0  0  0  0  0  0  0  0  0  0
    1.1860   -9.3527   16.0232 C   0  0  0  0  0  0  0  0  0  0  0  0
   -0.4760  -10.7759   22.2009 C   0  0  0  0  0  0  0  0  0  0  0  0
    7.4465   -5.8508   16.1749 C   0  0  0  0  0  0  0  0  0  0  0  0
   -0.6706  -10.6285   19.9428 C   0  0  0  0  0  0  0  0  0  0  0  0
    1.1668  -11.7487   18.6867 C   0  0  0  0  0  0  0  0  0  0  0  0
   10.8534   -3.7723   19.8665 Se  0  0  0  0  0  0  0  0  0  0  0  0
    1.6172  -10.6954   17.9810 C   0  0  0  0  0  0  0  0  0  0  0  0
    5.5609   -7.1958   15.8361 C   0  0  0  0  0  0  0  0  0  0  0  0
    2.5084   -8.7559   15.9611 He  0  0  0  0  0  0  0  0  0  0  0  0
  1 16  4  0
  1 19  2  0
  2  4  4  0
  2 20  2  0
  2 24  4  0
  3  4  2  0
  3 19  1  0
  3 21  2  0
  4  8  1  0
  4 19  4  0
  4 22  1  0
  4 26  4  0
  4 32  4  0
  4 33  1  0
  5 14  3  0
  5 20  4  0
  5 27  4  0
  6 10  2  0
  6 18  4  0
  6 21  4  0
  6 29  1  0
  7 13  4  0
  7 15  4  0
  7 25  4  0
  8 16  4  0
  8 17  4  0
  9 14  4  0
  9 17  4  0
  9 25  1  0
 10 14  4  0
 10 15  3  0
 10 19  2  0
 10 31  4  0
 11 16  3  0
 11 20  4  0
 11 29  4  0
 11 30  4  0
 12 18  4  0
 12 23  4  0
 12 32  4  0
 13 24  4  0
 15 28  4  0
 15 33  4  0
 16 21  1  0
 16 33  4  0
 17 28  4  0
 19 20  2  0
 19 31  1  0
 20 24  1  0
 21 23  4  0
 22 27  4  0
 22 29  4  0
 23 27  1  0
 24 27  4  0
 24 33  4  0
 25 28  4  0
 25 31  4  0
 29 31  2  0
 30 32  1  0
M  END
$$$$

 Created by Python create_sdf_string function

 34 39  0  0  0  0  0  0  0  0999 V2000
   11.8849   -2.4396   21.6569 O   0  0  0  0  0  0  0  0  0  0  0  0
    8.3834   -4.9520   15.6690 C   0  0  0  0  0  0  0  0  0  0  0  0
   10.7748   -4.2313   22.2867 O   0  0  0  0  0  0  0  0  0  0  0  0
    0.8319  -10.2084   16.8689 N   0  0  0  0  0  0  0  0  0  0  0  0
    0.7247  -11.4223   22.3631 C   0  0  0  0  0  0  0  0  0  0  0  0
    5.0410   -9.8478   18.3631 C   0  0  0  0  0  0  0  0  0  0  0  0
   10.9554   -3.2249   17.6530 C   0  0  0  0  0  0  0  0  0  0  0  0
    6.8058   -7.5320   17.7207 C   0  0  0  0  0  0  0  0  0  0  0  0
    8.6311   -5.9992   18.2595 O   0  0  0  0  0  0  0  0  0  0  0  0
   10.0194   -4.8028   19.7341 C   0  0  0  0  0  0  0  0  0  0  0  0
    0.6249  -11.3904   19.9697 C   0  0  0  0  0  0  0  0  0  0  0  0
    2.9657  -10.2549   17.8684 C   0  0  0  0  0  0  0  0  0  0  0  0
    9.9756   -4.1994   17.4312 C   0  0  0  0  0  0  0  0  0  0  0  0
    9.5502   -5.0288   18.4631 C   0  0  0  0  0  0  0  0  0  0  0  0
    6.4786   -6.2751   15.3376 C   0  0  0  0  0  0  0  0  0  0  0  0
    5.7205   -7.9034   16.9467 C   0  0  0  0  0  0  0  0  0  0  0  0
    7.6805   -6.4721   17.3792 C   0  0  0  0  0  0  0  0  0  0  0  0
    3.9694  -10.6168   18.6619 N   0  0  0  0  0  0  0  0  0  0  0  0
   11.2279   -3.4372   21.3651 C   0  0  0  0  0  0  0  0  0  0  0  0
    1.2762  -11.7377   21.1333 C   0  0  0  0  0  0  0  0  0  0  0  0
    4.7534   -8.9414   17.3727 C   0  0  0  0  0  0  0  0  0  0  0  0
   -1.1478  -10.4487   21.2508 C   0  0  0  0  0  0  0  0  0  0  0  0
    3.4077   -9.2704   16.9973 N   0  0  0  0  0  0  0  0  0  0  0  0
    9.4288   -4.2744   16.1638 C   0  0  0  0  0  0  0  0  0  0  0  0
   11.3847   -2.9563   18.9742 C   0  0  0  0  0  0  0  0  0  0  0  0
    1.2972   -9.2750   15.9881 C   0  0  0  0  0  0  0  0  0  0  0  0
   -0.4864  -10.7753   22.3894 C   0  0  0  0  0  0  0  0  0  0  0  0
    7.5300   -5.9104   16.1553 C   0  0  0  0  0  0  0  0  0  0  0  0
   -0.6001  -10.7349   20.0385 C   0  0  0  0  0  0  0  0  0  0  0  0
    1.1787  -11.7376   18.6829 C   0  0  0  0  0  0  0  0  0  0  0  0
    2.6080   -8.7861   16.0641 C   0  0  0  0  0  0  0  0  0  0  0  0
   10.9036   -3.7460   19.9977 C   0  0  0  0  0  0  0  0  0  0  0  0
    1.6387  -10.7149   17.8073 C   0  0  0  0  0  0  0  0  0  0  0  0
    5.5826   -7.2686   15.7607 C   0  0  0  0  0  0  0  0  0  0  0  0
  1 19  2  0
  2 24  4  0
  2 28  4  0
  3 19  1  0
  4 26  4  0
  4 33  4  0
  5 20  4  0
  5 27  4  0
  6 18  4  0
  6 21  4  0
  7 13  4  0
  7 25  4  0
  8 16  4  0
  8 17  4  0
  9 14  4  0
  9 17  4  0
 10 14  4  0
 10 32  4  0
 11 20  4  0
 11 29  4  0
 11 30  1  0
 12 18  4  0
 12 23  4  0
 12 33  4  0
 13 14  4  0
 13 24  4  0
 15 28  4  0
 15 34  4  0
 16 21  1  0
 16 34  4  0
 17 28  4  0
 19 32  1  0
 21 23  4  0
 22 27  4  0
 22 29  4  0
 23 31  4  0
 25 32  4  0
 26 31  4  0
 30 33  1  0
M  END
$$$$

 Created by Python create_sdf_string function

 34 46  0  0  0  0  0  0  0  0999 V2000
   11.9070   -2.4791   21.6504 O   0  0  0  0  0  0  0  0  0  0  0  0
    8.4375   -4.8614   15.6745 C   0  0  0  0  0  0  0  0  0  0  0  0
   10.6763   -4.1987   22.3448 O   0  0  0  0  0  0  0  0  0  0  0  0
    0.8019  -10.1550   17.0544 N   0  0  0  0  0  0  0  0  0  0  0  0
    0.8135  -11.4895   22.4035 C   0  0  0  0  0  0  0  0  0  0  0  0
    5.0133   -9.8255   18.4927 C   0  0  0  0  0  0  0  0  0  0  0  0
   10.9346   -3.2414   17.5960 C   0  0  0  0  0  0  0  0  0  0  0  0
    6.8493   -7.5712   17.7625 C   0  0  0  0  0  0  0  0  0  0  0  0
    8.5393   -6.0932   18.3197 N   0  0  0  0  0  0  0  0  0  0  0  0
    0.5936  -11.4997   19.8990 S   0  0  0  0  0  0  0  0  0  0  0  0
    3.0862  -10.1486   17.8882 C   0  0  0  0  0  0  0  0  0  0  0  0
    9.9056   -4.2019   17.4818 C   0  0  0  0  0  0  0  0  0  0  0  0
    9.6849   -5.0819   18.4123 C   0  0  0  0  0  0  0  0  0  0  0  0
    6.5343   -6.3350   15.2258 C   0  0  0  0  0  0  0  0  0  0  0  0
    5.5670   -7.7721   16.8007 C   0  0  0  0  0  0  0  0  0  0  0  0
    7.6507   -6.3423   17.2796 C   0  0  0  0  0  0  0  0  0  0  0  0
    4.0489  -10.6656   18.6043 N   0  0  0  0  0  0  0  0  0  0  0  0
   11.1525   -3.4834   21.3747 C   0  0  0  0  0  0  0  0  0  0  0  0
    1.2700  -11.6549   21.0802 C   0  0  0  0  0  0  0  0  0  0  0  0
    4.5577   -9.0064   17.1383 C   0  0  0  0  0  0  0  0  0  0  0  0
   -1.0674  -10.3537   21.2154 C   0  0  0  0  0  0  0  0  0  0  0  0
    3.4306   -9.2538   16.9224 N   0  0  0  0  0  0  0  0  0  0  0  0
    9.5109   -4.3487   16.2093 C   0  0  0  0  0  0  0  0  0  0  0  0
   11.3917   -2.9614   19.0641 C   0  0  0  0  0  0  0  0  0  0  0  0
    1.3327   -9.5606   15.8387 C   0  0  0  0  0  0  0  0  0  0  0  0
   -0.4988  -10.7659   22.3154 C   0  0  0  0  0  0  0  0  0  0  0  0
    7.5943   -5.8930   16.1853 C   0  0  0  0  0  0  0  0  0  0  0  0
   -0.4315  -10.7289   20.0065 C   0  0  0  0  0  0  0  0  0  0  0  0
    0.9871  -11.6950   18.6737 C   0  0  0  0  0  0  0  0  0  0  0  0
    2.6448   -8.7415   16.1809 C   0  0  0  0  0  0  0  0  0  0  0  0
   10.8996   -3.8549   19.9663 C   0  0  0  0  0  0  0  0  0  0  0  0
    1.5341  -10.7734   17.9184 C   0  0  0  0  0  0  0  0  0  0  0  0
    5.5617   -7.4100   15.6850 C   0  0  0  0  0  0  0  0  0  0  0  0
   10.0318   -4.8271   19.6083 He  0  0  0  0  0  0  0  0  0  0  0  0
  1 15  4  0
  1 18  2  0
  2 23  4  0
  2 27  4  0
  3 18  1  0
  4  8  2  0
  4 25  4  0
  4 32  4  0
  5 19  4  0
  5 26  4  0
  5 29  2  0
  6 17  4  0
  6 20  4  0
  7 12  4  0
  7 24  4  0
  8 15  4  0
  8 16  4  0
  9 13  4  0
  9 16  4  0
 10 19  4  0
 10 28  4  0
 10 29  1  0
 11 17  1  0
 11 22  4  0
 11 32  4  0
 12 13  4  0
 12 15  2  0
 12 23  4  0
 13 23  1  0
 13 26  3  0
 14 30  2  0
 14 33  4  0
 15 20  1  0
 15 23  3  0
 15 26  1  0
 16 27  4  0
 18 31  1  0
 19 24  4  0
 20 22  4  0
 21 26  4  0
 21 27  3  0
 21 28  4  0
 22 30  4  0
 24 31  4  0
 25 30  4  0
 30 33  1  0
M  END
$$$$

 Created by Python create_sdf_string function

 34 39  0  0  0  0  0  0  0  0999 V2000
   11.8982   -2.5091   21.6355 O   0  0  0  0  0  0  0  0  0  0  0  0
    8.3997   -4.9825   15.6833 C   0  0  0  0  0  0  0  0  0  0  0  0
   10.6918   -4.2048   22.2517 O   0  0  0  0  0  0  0  0  0  0  0  0
    0.8266  -10.2724   16.8695 N   0  0  0  0  0  0  0  0  0  0  0  0
    0.7433  -11.4592   22.3376 C   0  0  0  0  0  0  0  0  0  0  0  0
    5.0082   -9.8225   18.3656 C   0  0  0  0  0  0  0  0  0  0  0  0
   10.9273   -3.2274   17.6391 C   0  0  0  0  0  0  0  0  0  0  0  0
    6.7408   -7.4816   17.7191 C   0  0  0  0  0  0  0  0  0  0  0  0
    8.6076   -6.0384   18.2417 N   0  0  0  0  0  0  0  0  0  0  0  0
   10.0321   -4.8465   19.6946 C   0  0  0  0  0  0  0  0  0  0  0  0
    0.6028  -11.3819   19.9609 C   0  0  0  0  0  0  0  0  0  0  0  0
    2.9663  -10.2603   17.8697 C   0  0  0  0  0  0  0  0  0  0  0  0
    9.9715   -4.2190   17.4174 C   0  0  0  0  0  0  0  0  0  0  0  0
    9.5204   -5.0567   18.4241 C   0  0  0  0  0  0  0  0  0  0  0  0
    6.5302   -6.3477   15.2549 C   0  0  0  0  0  0  0  0  0  0  0  0
    5.7075   -7.9207   16.8963 C   0  0  0  0  0  0  0  0  0  0  0  0
    7.6451   -6.4798   17.3673 C   0  0  0  0  0  0  0  0  0  0  0  0
    3.9580  -10.6307   18.6944 N   0  0  0  0  0  0  0  0  0  0  0  0
   11.1845   -3.4768   21.3583 C   0  0  0  0  0  0  0  0  0  0  0  0
    1.2569  -11.7577   21.1023 C   0  0  0  0  0  0  0  0  0  0  0  0
    4.7376   -8.9299   17.3635 C   0  0  0  0  0  0  0  0  0  0  0  0
   -1.1183  -10.3894   21.2628 C   0  0  0  0  0  0  0  0  0  0  0  0
    3.4267   -9.2627   16.9985 N   0  0  0  0  0  0  0  0  0  0  0  0
    9.4151   -4.2947   16.1593 C   0  0  0  0  0  0  0  0  0  0  0  0
   11.3367   -2.9695   18.9643 C   0  0  0  0  0  0  0  0  0  0  0  0
    1.3021   -9.3606   15.9730 C   0  0  0  0  0  0  0  0  0  0  0  0
   -0.4449  -10.7652   22.3996 C   0  0  0  0  0  0  0  0  0  0  0  0
    7.5400   -5.9367   16.1193 C   0  0  0  0  0  0  0  0  0  0  0  0
   -0.5993  -10.6876   20.0423 C   0  0  0  0  0  0  0  0  0  0  0  0
    1.1395  -11.7617   18.6606 C   0  0  0  0  0  0  0  0  0  0  0  0
    2.6105   -8.8546   16.0501 C   0  0  0  0  0  0  0  0  0  0  0  0
   10.8679   -3.7751   19.9732 C   0  0  0  0  0  0  0  0  0  0  0  0
    1.6322  -10.7473   17.8249 C   0  0  0  0  0  0  0  0  0  0  0  0
    5.6235   -7.3077   15.6778 C   0  0  0  0  0  0  0  0  0  0  0  0
  1 19  2  0
  2 24  4  0
  2 28  4  0
  3 19  1  0
  4 26  4  0
  4 33  4  0
  5 20  4  0
  5 27  4  0
  6 18  4  0
  6 21  4  0
  7 13  4  0
  7 25  4  0
  8 16  4  0
  8 17  4  0
  9 14  4  0
  9 17  4  0
 10 14  4  0
 10 32  4  0
 11 20  4  0
 11 29  4  0
 11 30  1  0
 12 18  4  0
 12 23  4  0
 12 33  4  0
 13 14  4  0
 13 24  4  0
 15 28  4  0
 15 34  4  0
 16 21  1  0
 16 34  4  0
 17 28  4  0
 19 32  1  0
 21 23  4  0
 22 27  4  0
 22 29  4  0
 23 31  4  0
 25 32  4  0
 26 31  4  0
 30 33  1  0
M  END
$$$$

 Created by Python create_sdf_string function

 34 46  0  0  0  0  0  0  0  0999 V2000
   11.9382   -2.5915   21.5697 O   0  0  0  0  0  0  0  0  0  0  0  0
    8.3769   -5.0097   15.7046 C   0  0  0  0  0  0  0  0  0  0  0  0
   10.6638   -4.1260   22.3283 O   0  0  0  0  0  0  0  0  0  0  0  0
    0.8052  -10.1709   16.8569 N   0  0  0  0  0  0  0  0  0  0  0  0
    0.7703  -11.4671   22.3408 C   0  0  0  0  0  0  0  0  0  0  0  0
    4.8908   -9.8817   18.4161 C   0  0  0  0  0  0  0  0  0  0  0  0
   10.8413   -3.3238   17.6614 C   0  0  0  0  0  0  0  0  0  0  0  0
    6.6865   -7.4345   17.5984 C   0  0  0  0  0  0  0  0  0  0  0  0
    8.5605   -5.9955   18.3086 N   0  0  0  0  0  0  0  0  0  0  0  0
   10.0416   -4.8679   19.6369 C   0  0  0  0  0  0  0  0  0  0  0  0
    0.6552  -11.3899   19.9303 C   0  0  0  0  0  0  0  0  0  0  0  0
    9.9679   -4.3673   17.4913 C   0  0  0  0  0  0  0  0  0  0  0  0
    9.7049   -5.0984   18.5371 O   0  0  0  0  0  0  0  0  0  0  0  0
    6.6214   -6.2669   15.1934 C   0  0  0  0  0  0  0  0  0  0  0  0
    5.6545   -7.8233   16.9077 C   0  0  0  0  0  0  0  0  0  0  0  0
    7.6646   -6.4929   17.4225 C   0  0  0  0  0  0  0  0  0  0  0  0
    3.9380  -10.6657   18.5780 N   0  0  0  0  0  0  0  0  0  0  0  0
   11.1500   -3.4199   21.3900 C   0  0  0  0  0  0  0  0  0  0  0  0
    1.1888  -11.6590   21.1524 C   0  0  0  0  0  0  0  0  0  0  0  0
    4.5853   -8.8531   17.3065 C   0  0  0  0  0  0  0  0  0  0  0  0
   -1.0213  -10.3845   21.1454 C   0  0  0  0  0  0  0  0  0  0  0  0
    3.4740   -9.3076   16.9974 N   0  0  0  0  0  0  0  0  0  0  0  0
    9.4316   -4.1895   16.0215 C   0  0  0  0  0  0  0  0  0  0  0  0
   11.2693   -3.0062   19.1267 C   0  0  0  0  0  0  0  0  0  0  0  0
    1.1821   -9.4910   15.9891 C   0  0  0  0  0  0  0  0  0  0  0  0
   -0.4043  -10.7872   22.3696 C   0  0  0  0  0  0  0  0  0  0  0  0
    7.3063   -5.8391   16.1551 C   0  0  0  0  0  0  0  0  0  0  0  0
   -0.5259  -10.7429   19.9861 C   0  0  0  0  0  0  0  0  0  0  0  0
    1.0785  -11.8597   18.5051 C   0  0  0  0  0  0  0  0  0  0  0  0
    2.5062   -8.6688   16.1987 C   0  0  0  0  0  0  0  0  0  0  0  0
   10.8102   -3.7651   19.9305 C   0  0  0  0  0  0  0  0  0  0  0  0
    1.6823  -10.6519   17.8471 C   0  0  0  0  0  0  0  0  0  0  0  0
    5.6842   -7.2383   15.5341 C   0  0  0  0  0  0  0  0  0  0  0  0
    3.2151  -10.3237   17.8764 He  0  0  0  0  0  0  0  0  0  0  0  0
  1 18  2  0
  2 23  4  0
  2 27  4  0
  3 18  1  0
  3 22  3  0
  4 23  3  0
  4 25  4  0
  4 32  4  0
  5 11  4  0
  5 19  4  0
  5 26  4  0
  6 17  4  0
  6 20  4  0
  6 27  4  0
  7  8  3  0
  7 12  4  0
  7 15  4  0
  7 24  4  0
  8 15  4  0
  8 16  4  0
  8 18  2  0
  8 25  3  0
  9 13  4  0
  9 16  4  0
 10 13  4  0
 10 31  4  0
 11 19  4  0
 11 28  4  0
 11 29  1  0
 12 13  4  0
 12 23  4  0
 13 16  3  0
 14 27  4  0
 14 32  2  0
 14 33  4  0
 15 20  1  0
 18 19  3  0
 18 31  1  0
 19 21  4  0
 20 22  4  0
 21 26  4  0
 21 28  4  0
 22 30  4  0
 24 31  4  0
 25 30  4  0
 29 32  1  0
M  END
$$$$

 Created by Python create_sdf_string function

 34 39  0  0  0  0  0  0  0  0999 V2000
   11.9481   -2.5549   21.6042 O   0  0  0  0  0  0  0  0  0  0  0  0
    8.3605   -4.9318   15.6992 C   0  0  0  0  0  0  0  0  0  0  0  0
   10.6585   -4.1317   22.2934 O   0  0  0  0  0  0  0  0  0  0  0  0
    0.8291  -10.2724   16.8568 N   0  0  0  0  0  0  0  0  0  0  0  0
    0.7420  -11.4493   22.2966 C   0  0  0  0  0  0  0  0  0  0  0  0
    4.9832   -9.7923   18.3280 C   0  0  0  0  0  0  0  0  0  0  0  0
   10.8951   -3.2524   17.6573 C   0  0  0  0  0  0  0  0  0  0  0  0
    6.6832   -7.4355   17.6990 C   0  0  0  0  0  0  0  0  0  0  0  0
    8.5833   -6.0494   18.2422 N   0  0  0  0  0  0  0  0  0  0  0  0
   10.0122   -4.8803   19.7150 C   0  0  0  0  0  0  0  0  0  0  0  0
    0.6136  -11.4065   19.9330 C   0  0  0  0  0  0  0  0  0  0  0  0
    2.9336  -10.2782   17.8457 C   0  0  0  0  0  0  0  0  0  0  0  0
    9.9444   -4.2395   17.4440 C   0  0  0  0  0  0  0  0  0  0  0  0
    9.5224   -5.0944   18.4814 C   0  0  0  0  0  0  0  0  0  0  0  0
    6.5260   -6.3120   15.2297 C   0  0  0  0  0  0  0  0  0  0  0  0
    5.6827   -7.8634   16.8715 C   0  0  0  0  0  0  0  0  0  0  0  0
    7.6070   -6.4658   17.3749 C   0  0  0  0  0  0  0  0  0  0  0  0
    3.9444  -10.6540   18.6166 N   0  0  0  0  0  0  0  0  0  0  0  0
   11.1707   -3.4685   21.3478 C   0  0  0  0  0  0  0  0  0  0  0  0
    1.2570  -11.7514   21.0752 C   0  0  0  0  0  0  0  0  0  0  0  0
    4.7156   -8.9004   17.3380 C   0  0  0  0  0  0  0  0  0  0  0  0
   -1.0976  -10.3965   21.2142 C   0  0  0  0  0  0  0  0  0  0  0  0
    3.3802   -9.2305   17.0009 N   0  0  0  0  0  0  0  0  0  0  0  0
    9.4125   -4.3051   16.1539 C   0  0  0  0  0  0  0  0  0  0  0  0
   11.2678   -2.9735   18.9608 C   0  0  0  0  0  0  0  0  0  0  0  0
    1.2656   -9.3058   16.0119 C   0  0  0  0  0  0  0  0  0  0  0  0
   -0.4447  -10.7558   22.3540 C   0  0  0  0  0  0  0  0  0  0  0  0
    7.5113   -5.9107   16.1005 C   0  0  0  0  0  0  0  0  0  0  0  0
   -0.5748  -10.7138   20.0048 C   0  0  0  0  0  0  0  0  0  0  0  0
    1.1634  -11.8364   18.6229 C   0  0  0  0  0  0  0  0  0  0  0  0
    2.5499   -8.7577   16.1046 C   0  0  0  0  0  0  0  0  0  0  0  0
   10.8296   -3.7779   19.9982 C   0  0  0  0  0  0  0  0  0  0  0  0
    1.6377  -10.7801   17.7809 C   0  0  0  0  0  0  0  0  0  0  0  0
    5.6221   -7.2701   15.6408 C   0  0  0  0  0  0  0  0  0  0  0  0
  1 19  2  0
  2 24  4  0
  2 28  4  0
  3 19  1  0
  4 26  4  0
  4 33  4  0
  5 20  4  0
  5 27  4  0
  6 18  4  0
  6 21  4  0
  7 13  4  0
  7 25  4  0
  8 16  4  0
  8 17  4  0
  9 14  4  0
  9 17  4  0
 10 14  4  0
 10 32  4  0
 11 20  4  0
 11 29  4  0
 11 30  1  0
 12 18  4  0
 12 23  4  0
 12 33  4  0
 13 14  4  0
 13 24  4  0
 15 28  4  0
 15 34  4  0
 16 21  1  0
 16 34  4  0
 17 28  4  0
 19 32  1  0
 21 23  4  0
 22 27  4  0
 22 29  4  0
 23 31  4  0
 25 32  4  0
 26 31  4  0
 30 33  1  0
M  END
$$$$

 Created by Python create_sdf_string function

 34 42  0  0  0  0  0  0  0  0999 V2000
   11.8012   -2.4396   21.6400 O   0  0  0  0  0  0  0  0  0  0  0  0
    8.3865   -5.0821   15.6677 C   0  0  0  0  0  0  0  0  0  0  0  0
   10.6005   -4.1917   22.3398 O   0  0  0  0  0  0  0  0  0  0  0  0
    0.8668  -10.3165   16.8366 N   0  0  0  0  0  0  0  0  0  0  0  0
    0.7941  -11.4068   22.3072 C   0  0  0  0  0  0  0  0  0  0  0  0
    4.9744   -9.7799   18.4133 C   0  0  0  0  0  0  0  0  0  0  0  0
   10.8733   -3.2429   17.5699 C   0  0  0  0  0  0  0  0  0  0  0  0
    6.6861   -7.4164   17.7092 C   0  0  0  0  0  0  0  0  0  0  0  0
    8.5596   -6.0088   18.1298 N   0  0  0  0  0  0  0  0  0  0  0  0
    0.5412  -11.3825   19.8606 C   0  0  0  0  0  0  0  0  0  0  0  0
    2.9660  -10.1130   17.9574 C   0  0  0  0  0  0  0  0  0  0  0  0
   10.0284   -4.3314   17.4374 C   0  0  0  0  0  0  0  0  0  0  0  0
    6.4352   -6.3291   15.2886 C   0  0  0  0  0  0  0  0  0  0  0  0
    7.7015   -6.5606   17.3752 C   0  0  0  0  0  0  0  0  0  0  0  0
    3.9936  -10.6062   18.5305 N   0  0  0  0  0  0  0  0  0  0  0  0
   11.1502   -3.3814   21.3917 C   0  0  0  0  0  0  0  0  0  0  0  0
    1.1940  -11.8358   20.9565 C   0  0  0  0  0  0  0  0  0  0  0  0
    4.5371   -8.9045   17.3310 C   0  0  0  0  0  0  0  0  0  0  0  0
   -1.1444  -10.3198   21.2554 C   0  0  0  0  0  0  0  0  0  0  0  0
    3.4891   -9.2600   17.0710 S   0  0  0  0  0  0  0  0  0  0  0  0
    9.4449   -4.2149   16.2381 C   0  0  0  0  0  0  0  0  0  0  0  0
   11.3019   -3.0554   18.8814 C   0  0  0  0  0  0  0  0  0  0  0  0
    1.2351   -9.2640   15.9266 P   0  0  0  0  0  0  0  0  0  0  0  0
   -0.5311  -10.7941   22.3639 C   0  0  0  0  0  0  0  0  0  0  0  0
    7.5977   -5.9047   16.1167 C   0  0  0  0  0  0  0  0  0  0  0  0
    1.1904  -11.8960   18.5792 C   0  0  0  0  0  0  0  0  0  0  0  0
    2.4074   -8.8412   16.1153 C   0  0  0  0  0  0  0  0  0  0  0  0
   10.8146   -3.8905   20.0216 C   0  0  0  0  0  0  0  0  0  0  0  0
    1.6924  -10.7566   17.9227 C   0  0  0  0  0  0  0  0  0  0  0  0
    5.6678   -7.2211   15.6663 C   0  0  0  0  0  0  0  0  0  0  0  0
    9.9754   -4.9012   19.7016 He  0  0  0  0  0  0  0  0  0  0  0  0
    9.6190   -5.0881   18.5512 He  0  0  0  0  0  0  0  0  0  0  0  0
    5.7189   -7.7847   16.9078 He  0  0  0  0  0  0  0  0  0  0  0  0
   -0.5473  -10.7735   19.9580 He  0  0  0  0  0  0  0  0  0  0  0  0
  1  9  4  0
  1 16  2  0
  2 21  4  0
  2 24  4  0
  2 25  4  0
  3 16  1  0
  4 23  4  0
  4 28  2  0
  4 29  4  0
  5 14  1  0
  5 17  4  0
  5 24  4  0
  6 15  4  0
  6 18  4  0
  7 12  4  0
  7 22  1  0
  7 25  4  0
  8 10  1  0
  8 14  4  0
  8 19  4  0
  9 12  1  0
  9 14  4  0
 10 17  4  0
 10 26  1  0
 11 15  4  0
 11 20  4  0
 11 29  4  0
 12 21  4  0
 12 29  3  0
 13 25  4  0
 13 30  1  0
 14 25  4  0
 15 28  2  0
 16 19  3  0
 16 28  1  0
 17 23  4  0
 18 20  4  0
 19 24  4  0
 20 27  4  0
 22 28  4  0
 23 27  4  0
 26 29  1  0
M  END
$$$$

 Created by Python create_sdf_string function

 34 39  0  0  0  0  0  0  0  0999 V2000
   11.8153   -2.4416   21.6395 O   0  0  0  0  0  0  0  0  0  0  0  0
    8.3893   -5.0138   15.6597 C   0  0  0  0  0  0  0  0  0  0  0  0
   10.6316   -4.1694   22.2762 O   0  0  0  0  0  0  0  0  0  0  0  0
    0.8372  -10.2817   16.8457 N   0  0  0  0  0  0  0  0  0  0  0  0
    0.7182  -11.4679   22.3019 C   0  0  0  0  0  0  0  0  0  0  0  0
    4.9799   -9.7608   18.3607 C   0  0  0  0  0  0  0  0  0  0  0  0
   10.9183   -3.2745   17.6353 C   0  0  0  0  0  0  0  0  0  0  0  0
    6.7147   -7.4718   17.7207 C   0  0  0  0  0  0  0  0  0  0  0  0
    8.6156   -6.0698   18.2342 N   0  0  0  0  0  0  0  0  0  0  0  0
   10.0146   -4.8712   19.7246 C   0  0  0  0  0  0  0  0  0  0  0  0
    0.5857  -11.4416   19.9171 C   0  0  0  0  0  0  0  0  0  0  0  0
    2.9336  -10.2516   17.8475 C   0  0  0  0  0  0  0  0  0  0  0  0
    9.9522   -4.2452   17.4299 C   0  0  0  0  0  0  0  0  0  0  0  0
    9.5342   -5.0871   18.4697 C   0  0  0  0  0  0  0  0  0  0  0  0
    6.5333   -6.3406   15.2594 C   0  0  0  0  0  0  0  0  0  0  0  0
    5.6774   -7.8595   16.9233 C   0  0  0  0  0  0  0  0  0  0  0  0
    7.6357   -6.4929   17.3708 C   0  0  0  0  0  0  0  0  0  0  0  0
    3.9346  -10.5918   18.6602 N   0  0  0  0  0  0  0  0  0  0  0  0
   11.1306   -3.4374   21.3713 C   0  0  0  0  0  0  0  0  0  0  0  0
    1.2208  -11.8086   21.0622 C   0  0  0  0  0  0  0  0  0  0  0  0
    4.7064   -8.8642   17.3679 C   0  0  0  0  0  0  0  0  0  0  0  0
   -1.1434  -10.3956   21.2224 C   0  0  0  0  0  0  0  0  0  0  0  0
    3.3651   -9.2077   17.0001 N   0  0  0  0  0  0  0  0  0  0  0  0
    9.4183   -4.3405   16.1642 C   0  0  0  0  0  0  0  0  0  0  0  0
   11.3139   -3.0041   18.9607 C   0  0  0  0  0  0  0  0  0  0  0  0
    1.2564   -9.3047   15.9645 C   0  0  0  0  0  0  0  0  0  0  0  0
   -0.4715  -10.7573   22.3679 C   0  0  0  0  0  0  0  0  0  0  0  0
    7.5287   -5.9495   16.1037 C   0  0  0  0  0  0  0  0  0  0  0  0
   -0.5920  -10.7431   20.0289 C   0  0  0  0  0  0  0  0  0  0  0  0
    1.1555  -11.8315   18.6032 C   0  0  0  0  0  0  0  0  0  0  0  0
    2.5257   -8.7557   16.0784 C   0  0  0  0  0  0  0  0  0  0  0  0
   10.8452   -3.7817   19.9917 C   0  0  0  0  0  0  0  0  0  0  0  0
    1.6439  -10.7640   17.7795 C   0  0  0  0  0  0  0  0  0  0  0  0
    5.5775   -7.2665   15.7054 C   0  0  0  0  0  0  0  0  0  0  0  0
  1 19  2  0
  2 24  4  0
  2 28  4  0
  3 19  1  0
  4 26  4  0
  4 33  4  0
  5 20  4  0
  5 27  4  0
  6 18  4  0
  6 21  4  0
  7 13  4  0
  7 25  4  0
  8 16  4  0
  8 17  4  0
  9 14  4  0
  9 17  4  0
 10 14  4  0
 10 32  4  0
 11 20  4  0
 11 29  4  0
 11 30  1  0
 12 18  4  0
 12 23  4  0
 12 33  4  0
 13 14  4  0
 13 24  4  0
 15 28  4  0
 15 34  4  0
 16 21  1  0
 16 34  4  0
 17 28  4  0
 19 32  1  0
 21 23  4  0
 22 27  4  0
 22 29  4  0
 23 31  4  0
 25 32  4  0
 26 31  4  0
 30 33  1  0
M  END
$$$$

 Created by Python create_sdf_string function

 34 46  0  0  0  0  0  0  0  0999 V2000
   11.7251   -2.3605   21.6332 O   0  0  0  0  0  0  0  0  0  0  0  0
    8.3542   -5.0151   15.7349 C   0  0  0  0  0  0  0  0  0  0  0  0
   10.6582   -4.0765   22.2829 P   0  0  0  0  0  0  0  0  0  0  0  0
    0.8119  -10.3052   16.8607 N   0  0  0  0  0  0  0  0  0  0  0  0
    0.7974  -11.3370   22.4292 C   0  0  0  0  0  0  0  0  0  0  0  0
    5.0908   -9.8093   18.3614 C   0  0  0  0  0  0  0  0  0  0  0  0
   10.9813   -3.2198   17.5562 C   0  0  0  0  0  0  0  0  0  0  0  0
    6.6845   -7.3312   17.7226 C   0  0  0  0  0  0  0  0  0  0  0  0
    8.6084   -6.0713   18.2808 N   0  0  0  0  0  0  0  0  0  0  0  0
   10.0656   -4.9124   19.6992 C   0  0  0  0  0  0  0  0  0  0  0  0
    0.5580  -11.4340   19.9225 C   0  0  0  0  0  0  0  0  0  0  0  0
    2.9324  -10.1834   17.8717 C   0  0  0  0  0  0  0  0  0  0  0  0
   10.0049   -4.2960   17.3359 C   0  0  0  0  0  0  0  0  0  0  0  0
    9.4881   -5.0751   18.6111 C   0  0  0  0  0  0  0  0  0  0  0  0
    6.5358   -6.3349   15.1787 C   0  0  0  0  0  0  0  0  0  0  0  0
    5.6521   -7.7474   16.8838 C   0  0  0  0  0  0  0  0  0  0  0  0
    7.6771   -6.5612   17.3584 C   0  0  0  0  0  0  0  0  0  0  0  0
    3.9135  -10.5914   18.6825 N   0  0  0  0  0  0  0  0  0  0  0  0
   10.9776   -3.3894   21.4017 C   0  0  0  0  0  0  0  0  0  0  0  0
    1.3460  -11.8917   21.0090 C   0  0  0  0  0  0  0  0  0  0  0  0
    4.7525   -8.8483   17.2721 C   0  0  0  0  0  0  0  0  0  0  0  0
   -1.0675  -10.4371   21.2168 C   0  0  0  0  0  0  0  0  0  0  0  0
    3.3187   -9.2515   16.9202 N   0  0  0  0  0  0  0  0  0  0  0  0
    9.4161   -4.3528   16.0867 C   0  0  0  0  0  0  0  0  0  0  0  0
   11.2096   -3.0574   18.9873 C   0  0  0  0  0  0  0  0  0  0  0  0
    1.2130   -9.0766   15.9731 C   0  0  0  0  0  0  0  0  0  0  0  0
   -0.3935  -10.8132   22.3535 C   0  0  0  0  0  0  0  0  0  0  0  0
    7.5656   -5.9630   15.9437 C   0  0  0  0  0  0  0  0  0  0  0  0
   -0.6722  -10.6482   20.0783 C   0  0  0  0  0  0  0  0  0  0  0  0
    1.0954  -11.8414   18.7210 F   0  0  0  0  0  0  0  0  0  0  0  0
    2.6949   -8.6260   16.0615 C   0  0  0  0  0  0  0  0  0  0  0  0
   10.8959   -3.7048   19.9874 C   0  0  0  0  0  0  0  0  0  0  0  0
    1.6419  -10.7616   17.7025 C   0  0  0  0  0  0  0  0  0  0  0  0
    5.5898   -7.1864   15.7263 C   0  0  0  0  0  0  0  0  0  0  0  0
  1 19  2  0
  2 24  4  0
  2 28  4  0
  3 17  2  0
  3 19  1  0
  4 10  4  0
  4 26  4  0
  4 33  4  0
  5 20  4  0
  5 27  4  0
  6 18  4  0
  6 21  4  0
  7 13  4  0
  7 25  4  0
  7 30  4  0
  8 16  4  0
  8 17  4  0
  8 24  3  0
  9 14  4  0
  9 17  4  0
 10 32  4  0
 10 33  2  0
 11 20  4  0
 11 29  4  0
 11 30  1  0
 12 18  4  0
 12 23  4  0
 12 33  4  0
 13 14  3  0
 13 24  4  0
 14 15  3  0
 14 28  1  0
 15 28  4  0
 15 34  4  0
 16 21  1  0
 16 34  4  0
 17 28  4  0
 17 31  3  0
 19 32  1  0
 21 23  4  0
 22 27  4  0
 22 29  4  0
 23 31  4  0
 25 32  4  0
 26 31  4  0
 30 33  1  0
M  END
$$$$

 Created by Python create_sdf_string function

 34 39  0  0  0  0  0  0  0  0999 V2000
   11.7240   -2.3638   21.6209 O   0  0  0  0  0  0  0  0  0  0  0  0
    8.4436   -5.0362   15.6161 C   0  0  0  0  0  0  0  0  0  0  0  0
   10.6265   -4.1378   22.2736 O   0  0  0  0  0  0  0  0  0  0  0  0
    0.8410  -10.2052   16.8296 N   0  0  0  0  0  0  0  0  0  0  0  0
    0.7872  -11.4431   22.3281 C   0  0  0  0  0  0  0  0  0  0  0  0
    4.9928   -9.7620   18.3293 C   0  0  0  0  0  0  0  0  0  0  0  0
   10.9119   -3.2647   17.6271 C   0  0  0  0  0  0  0  0  0  0  0  0
    6.7184   -7.4206   17.7173 C   0  0  0  0  0  0  0  0  0  0  0  0
    8.6011   -6.0460   18.2171 N   0  0  0  0  0  0  0  0  0  0  0  0
   10.0016   -4.8477   19.7470 C   0  0  0  0  0  0  0  0  0  0  0  0
    0.5804  -11.4156   19.9408 C   0  0  0  0  0  0  0  0  0  0  0  0
    2.9373  -10.2269   17.8231 C   0  0  0  0  0  0  0  0  0  0  0  0
    9.9508   -4.2595   17.4134 C   0  0  0  0  0  0  0  0  0  0  0  0
    9.5398   -5.1022   18.4845 C   0  0  0  0  0  0  0  0  0  0  0  0
    6.5323   -6.3396   15.2151 C   0  0  0  0  0  0  0  0  0  0  0  0
    5.6962   -7.8181   16.8953 C   0  0  0  0  0  0  0  0  0  0  0  0
    7.6330   -6.4586   17.3570 C   0  0  0  0  0  0  0  0  0  0  0  0
    3.9321  -10.5850   18.6350 N   0  0  0  0  0  0  0  0  0  0  0  0
   11.0931   -3.3705   21.3456 C   0  0  0  0  0  0  0  0  0  0  0  0
    1.2635  -11.7999   21.0659 C   0  0  0  0  0  0  0  0  0  0  0  0
    4.7154   -8.8557   17.3432 C   0  0  0  0  0  0  0  0  0  0  0  0
   -1.1202  -10.4239   21.2790 C   0  0  0  0  0  0  0  0  0  0  0  0
    3.3774   -9.1886   16.9836 N   0  0  0  0  0  0  0  0  0  0  0  0
    9.4125   -4.3637   16.1505 C   0  0  0  0  0  0  0  0  0  0  0  0
   11.2780   -2.9788   18.9417 C   0  0  0  0  0  0  0  0  0  0  0  0
    1.2680   -9.1896   15.9941 C   0  0  0  0  0  0  0  0  0  0  0  0
   -0.4145  -10.7638   22.3925 C   0  0  0  0  0  0  0  0  0  0  0  0
    7.5301   -5.9405   16.0585 C   0  0  0  0  0  0  0  0  0  0  0  0
   -0.6141  -10.7416   20.0511 C   0  0  0  0  0  0  0  0  0  0  0  0
    1.1113  -11.7730   18.6105 C   0  0  0  0  0  0  0  0  0  0  0  0
    2.5671   -8.6791   16.0760 C   0  0  0  0  0  0  0  0  0  0  0  0
   10.8121   -3.7287   19.9881 C   0  0  0  0  0  0  0  0  0  0  0  0
    1.6204  -10.7270   17.7761 C   0  0  0  0  0  0  0  0  0  0  0  0
    5.5877   -7.2378   15.6834 C   0  0  0  0  0  0  0  0  0  0  0  0
  1 19  2  0
  2 24  4  0
  2 28  4  0
  3 19  1  0
  4 26  4  0
  4 33  4  0
  5 20  4  0
  5 27  4  0
  6 18  4  0
  6 21  4  0
  7 13  4  0
  7 25  4  0
  8 16  4  0
  8 17  4  0
  9 14  4  0
  9 17  4  0
 10 14  4  0
 10 32  4  0
 11 20  4  0
 11 29  4  0
 11 30  1  0
 12 18  4  0
 12 23  4  0
 12 33  4  0
 13 14  4  0
 13 24  4  0
 15 28  4  0
 15 34  4  0
 16 21  1  0
 16 34  4  0
 17 28  4  0
 19 32  1  0
 21 23  4  0
 22 27  4  0
 22 29  4  0
 23 31  4  0
 25 32  4  0
 26 31  4  0
 30 33  1  0
M  END
$$$$

 Created by Python create_sdf_string function

 34 50  0  0  0  0  0  0  0  0999 V2000
   11.7013   -2.4140   21.6304 O   0  0  0  0  0  0  0  0  0  0  0  0
    8.4205   -5.0131   15.6460 C   0  0  0  0  0  0  0  0  0  0  0  0
   10.6531   -4.1520   22.4316 O   0  0  0  0  0  0  0  0  0  0  0  0
    0.9533  -10.2552   16.8703 N   0  0  0  0  0  0  0  0  0  0  0  0
    0.8159  -11.3804   22.1835 C   0  0  0  0  0  0  0  0  0  0  0  0
    4.9472   -9.7992   18.3044 C   0  0  0  0  0  0  0  0  0  0  0  0
   10.8587   -3.4073   17.5184 C   0  0  0  0  0  0  0  0  0  0  0  0
    6.7137   -7.4313   17.7718 C   0  0  0  0  0  0  0  0  0  0  0  0
    8.5487   -6.0554   18.2442 N   0  0  0  0  0  0  0  0  0  0  0  0
    9.9796   -4.8349   19.6859 C   0  0  0  0  0  0  0  0  0  0  0  0
    0.6745  -11.4300   19.9391 C   0  0  0  0  0  0  0  0  0  0  0  0
    2.8463  -10.1313   17.7767 C   0  0  0  0  0  0  0  0  0  0  0  0
    9.9434   -4.2450   17.4449 F   0  0  0  0  0  0  0  0  0  0  0  0
    9.4229   -5.0981   18.5652 C   0  0  0  0  0  0  0  0  0  0  0  0
    6.3115   -6.3311   15.0979 C   0  0  0  0  0  0  0  0  0  0  0  0
    5.7479   -7.7353   16.9619 C   0  0  0  0  0  0  0  0  0  0  0  0
    7.6298   -6.4062   17.3402 C   0  0  0  0  0  0  0  0  0  0  0  0
    3.9430  -10.5104   18.6465 C   0  0  0  0  0  0  0  0  0  0  0  0
   11.0872   -3.4077   21.4234 C   0  0  0  0  0  0  0  0  0  0  0  0
    1.3019  -11.7491   21.0359 C   0  0  0  0  0  0  0  0  0  0  0  0
    4.5688   -8.9382   17.3896 C   0  0  0  0  0  0  0  0  0  0  0  0
   -1.0202  -10.3928   21.2533 C   0  0  0  0  0  0  0  0  0  0  0  0
    3.3868   -9.1517   17.0700 N   0  0  0  0  0  0  0  0  0  0  0  0
    9.4817   -4.3777   16.1394 C   0  0  0  0  0  0  0  0  0  0  0  0
   11.3413   -2.9048   18.9930 C   0  0  0  0  0  0  0  0  0  0  0  0
    1.2685   -9.0787   16.0331 S   0  0  0  0  0  0  0  0  0  0  0  0
   -0.4761  -10.7533   22.3461 C   0  0  0  0  0  0  0  0  0  0  0  0
    7.5195   -5.8313   16.0111 C   0  0  0  0  0  0  0  0  0  0  0  0
   -0.6345  -10.7069   20.0707 C   0  0  0  0  0  0  0  0  0  0  0  0
    1.0798  -11.7514   18.6360 C   0  0  0  0  0  0  0  0  0  0  0  0
    2.6316   -8.5542   16.1362 C   0  0  0  0  0  0  0  0  0  0  0  0
   10.8372   -3.6114   19.8584 C   0  0  0  0  0  0  0  0  0  0  0  0
    1.6426  -10.7260   17.7506 C   0  0  0  0  0  0  0  0  0  0  0  0
    5.5973   -7.2117   15.6186 C   0  0  0  0  0  0  0  0  0  0  0  0
  1 19  2  0
  1 20  4  0
  2 17  3  0
  2 24  4  0
  2 28  4  0
  3 19  1  0
  4 26  4  0
  4 33  4  0
  5 20  4  0
  5 27  4  0
  6 21  4  0
  6 28  4  0
  7 13  4  0
  7 25  4  0
  8 16  1  0
  8 17  4  0
  8 28  4  0
  9 14  4  0
  9 17  4  0
 10 14  4  0
 10 32  4  0
 11 20  4  0
 11 22  4  0
 11 29  4  0
 11 30  1  0
 12 18  4  0
 12 23  4  0
 12 33  4  0
 13 14  4  0
 13 16  1  0
 13 18  1  0
 13 24  4  0
 15 28  4  0
 15 34  4  0
 16 26  3  0
 16 34  4  0
 17 28  4  0
 19 32  1  0
 21 23  4  0
 22 27  4  0
 22 29  4  0
 23 28  1  0
 23 31  2  0
 23 32  1  0
 23 33  4  0
 24 32  1  0
 25 32  4  0
 25 33  2  0
 26 31  4  0
 30 33  1  0
M  END
$$$$

 Created by Python create_sdf_string function

 34 39  0  0  0  0  0  0  0  0999 V2000
   11.7317   -2.3949   21.6141 O   0  0  0  0  0  0  0  0  0  0  0  0
    8.3863   -5.0206   15.6141 C   0  0  0  0  0  0  0  0  0  0  0  0
   10.6701   -4.1346   22.3103 O   0  0  0  0  0  0  0  0  0  0  0  0
    0.8792  -10.1679   16.8063 N   0  0  0  0  0  0  0  0  0  0  0  0
    0.7820  -11.4295   22.2688 C   0  0  0  0  0  0  0  0  0  0  0  0
    5.0054   -9.7731   18.3653 C   0  0  0  0  0  0  0  0  0  0  0  0
   10.8842   -3.2927   17.6019 C   0  0  0  0  0  0  0  0  0  0  0  0
    6.7046   -7.4259   17.7309 C   0  0  0  0  0  0  0  0  0  0  0  0
    8.5185   -6.0111   18.2510 N   0  0  0  0  0  0  0  0  0  0  0  0
    9.9324   -4.7912   19.7367 C   0  0  0  0  0  0  0  0  0  0  0  0
    0.5891  -11.3930   19.9166 C   0  0  0  0  0  0  0  0  0  0  0  0
    2.9171  -10.2134   17.8555 C   0  0  0  0  0  0  0  0  0  0  0  0
    9.9269   -4.2740   17.4168 C   0  0  0  0  0  0  0  0  0  0  0  0
    9.4623   -5.0665   18.4668 C   0  0  0  0  0  0  0  0  0  0  0  0
    6.4693   -6.3208   15.2227 C   0  0  0  0  0  0  0  0  0  0  0  0
    5.6725   -7.8256   16.9104 C   0  0  0  0  0  0  0  0  0  0  0  0
    7.6032   -6.4419   17.3589 C   0  0  0  0  0  0  0  0  0  0  0  0
    3.9277  -10.6100   18.6404 N   0  0  0  0  0  0  0  0  0  0  0  0
   11.0958   -3.3884   21.3623 C   0  0  0  0  0  0  0  0  0  0  0  0
    1.2689  -11.7453   21.0459 C   0  0  0  0  0  0  0  0  0  0  0  0
    4.6980   -8.8655   17.3909 C   0  0  0  0  0  0  0  0  0  0  0  0
   -1.0981  -10.4158   21.2497 C   0  0  0  0  0  0  0  0  0  0  0  0
    3.3775   -9.1629   17.0470 N   0  0  0  0  0  0  0  0  0  0  0  0
    9.4029   -4.3884   16.1498 C   0  0  0  0  0  0  0  0  0  0  0  0
   11.2788   -2.9697   18.9146 C   0  0  0  0  0  0  0  0  0  0  0  0
    1.2964   -9.1231   16.0129 C   0  0  0  0  0  0  0  0  0  0  0  0
   -0.4020  -10.7528   22.3737 C   0  0  0  0  0  0  0  0  0  0  0  0
    7.4880   -5.9347   16.0658 C   0  0  0  0  0  0  0  0  0  0  0  0
   -0.6016  -10.7304   20.0371 C   0  0  0  0  0  0  0  0  0  0  0  0
    1.0867  -11.7741   18.5848 C   0  0  0  0  0  0  0  0  0  0  0  0
    2.5648   -8.5866   16.1380 C   0  0  0  0  0  0  0  0  0  0  0  0
   10.7958   -3.7171   19.9843 C   0  0  0  0  0  0  0  0  0  0  0  0
    1.6177  -10.7046   17.7647 C   0  0  0  0  0  0  0  0  0  0  0  0
    5.5463   -7.2562   15.6863 C   0  0  0  0  0  0  0  0  0  0  0  0
  1 19  2  0
  2 24  4  0
  2 28  4  0
  3 19  1  0
  4 26  4  0
  4 33  4  0
  5 20  4  0
  5 27  4  0
  6 18  4  0
  6 21  4  0
  7 13  4  0
  7 25  4  0
  8 16  4  0
  8 17  4  0
  9 14  4  0
  9 17  4  0
 10 14  4  0
 10 32  4  0
 11 20  4  0
 11 29  4  0
 11 30  1  0
 12 18  4  0
 12 23  4  0
 12 33  4  0
 13 14  4  0
 13 24  4  0
 15 28  4  0
 15 34  4  0
 16 21  1  0
 16 34  4  0
 17 28  4  0
 19 32  1  0
 21 23  4  0
 22 27  4  0
 22 29  4  0
 23 31  4  0
 25 32  4  0
 26 31  4  0
 30 33  1  0
M  END
$$$$

 Created by Python create_sdf_string function

 34 44  0  0  0  0  0  0  0  0999 V2000
   11.7314   -2.3156   21.5265 O   0  0  0  0  0  0  0  0  0  0  0  0
    8.2976   -5.0528   15.6559 C   0  0  0  0  0  0  0  0  0  0  0  0
   10.7152   -4.1459   22.3119 O   0  0  0  0  0  0  0  0  0  0  0  0
    0.9733  -10.2638   16.8186 N   0  0  0  0  0  0  0  0  0  0  0  0
    0.6940  -11.3786   22.3503 C   0  0  0  0  0  0  0  0  0  0  0  0
    4.9942   -9.7947   18.2768 C   0  0  0  0  0  0  0  0  0  0  0  0
   10.9665   -3.2143   17.6008 C   0  0  0  0  0  0  0  0  0  0  0  0
    6.6838   -7.4358   17.8103 C   0  0  0  0  0  0  0  0  0  0  0  0
    8.4190   -5.9954   18.2601 N   0  0  0  0  0  0  0  0  0  0  0  0
    9.9328   -4.7211   19.7214 C   0  0  0  0  0  0  0  0  0  0  0  0
    0.5743  -11.4330   19.8101 C   0  0  0  0  0  0  0  0  0  0  0  0
    2.8807  -10.1675   17.8318 O   0  0  0  0  0  0  0  0  0  0  0  0
    9.9291   -4.3030   17.3901 C   0  0  0  0  0  0  0  0  0  0  0  0
    9.5126   -4.9876   18.4854 C   0  0  0  0  0  0  0  0  0  0  0  0
    6.5379   -6.2704   15.1450 C   0  0  0  0  0  0  0  0  0  0  0  0
    5.7540   -7.7796   16.9373 C   0  0  0  0  0  0  0  0  0  0  0  0
    7.6214   -6.4507   17.3108 C   0  0  0  0  0  0  0  0  0  0  0  0
    4.0452  -10.6810   18.6340 N   0  0  0  0  0  0  0  0  0  0  0  0
   11.1048   -3.4255   21.3295 C   0  0  0  0  0  0  0  0  0  0  0  0
    1.2936  -11.6953   21.0456 C   0  0  0  0  0  0  0  0  0  0  0  0
   -1.1355  -10.3586   21.2684 C   0  0  0  0  0  0  0  0  0  0  0  0
    3.4529   -9.1737   17.0125 N   0  0  0  0  0  0  0  0  0  0  0  0
    9.4538   -4.4708   16.2674 C   0  0  0  0  0  0  0  0  0  0  0  0
   11.1982   -2.8659   18.9119 C   0  0  0  0  0  0  0  0  0  0  0  0
    1.3593   -9.1227   16.0976 C   0  0  0  0  0  0  0  0  0  0  0  0
   -0.4550  -10.7868   22.3104 N   0  0  0  0  0  0  0  0  0  0  0  0
    7.6038   -6.0290   16.1606 C   0  0  0  0  0  0  0  0  0  0  0  0
   -0.5713  -10.6220   20.0523 C   0  0  0  0  0  0  0  0  0  0  0  0
    1.0911  -11.8416   18.5004 C   0  0  0  0  0  0  0  0  0  0  0  0
    2.6518   -8.6364   16.0856 C   0  0  0  0  0  0  0  0  0  0  0  0
   10.7493   -3.7716   19.9880 C   0  0  0  0  0  0  0  0  0  0  0  0
    1.5857  -10.7060   17.8008 C   0  0  0  0  0  0  0  0  0  0  0  0
    5.5475   -7.2061   15.6799 C   0  0  0  0  0  0  0  0  0  0  0  0
    4.7595   -8.9514   17.3757 He  0  0  0  0  0  0  0  0  0  0  0  0
  1 16  1  0
  1 19  2  0
  1 29  2  0
  2 23  4  0
  2 27  4  0
  3 19  1  0
  4 24  3  0
  4 25  4  0
  4 32  4  0
  5  8  3  0
  5 20  4  0
  5 26  4  0
  5 33  4  0
  6 18  4  0
  7 13  4  0
  7 24  4  0
  8 16  4  0
  8 17  4  0
  9 14  4  0
  9 17  4  0
 10 14  4  0
 10 31  4  0
 11 20  4  0
 11 28  4  0
 11 29  2  0
 12 18  4  0
 12 22  4  0
 12 32  4  0
 13 14  4  0
 13 23  4  0
 14 18  2  0
 15 26  3  0
 15 27  4  0
 15 33  4  0
 16 33  4  0
 17 27  4  0
 19 31  1  0
 20 26  2  0
 21 26  4  0
 21 28  4  0
 22 30  4  0
 24 31  4  0
 25 30  4  0
 29 32  1  0
M  END
$$$$

 Created by Python create_sdf_string function

 34 39  0  0  0  0  0  0  0  0999 V2000
   11.7335   -2.3559   21.5395 O   0  0  0  0  0  0  0  0  0  0  0  0
    8.4490   -5.0655   15.6651 C   0  0  0  0  0  0  0  0  0  0  0  0
   10.7271   -4.1442   22.2734 O   0  0  0  0  0  0  0  0  0  0  0  0
    0.8949  -10.1732   16.7931 N   0  0  0  0  0  0  0  0  0  0  0  0
    0.7330  -11.4231   22.2962 C   0  0  0  0  0  0  0  0  0  0  0  0
    5.0136   -9.8067   18.3082 C   0  0  0  0  0  0  0  0  0  0  0  0
   10.8921   -3.2448   17.6178 C   0  0  0  0  0  0  0  0  0  0  0  0
    6.7039   -7.4467   17.7553 C   0  0  0  0  0  0  0  0  0  0  0  0
    8.5156   -5.9872   18.2585 N   0  0  0  0  0  0  0  0  0  0  0  0
    9.9228   -4.7586   19.7391 C   0  0  0  0  0  0  0  0  0  0  0  0
    0.5871  -11.3752   19.8836 C   0  0  0  0  0  0  0  0  0  0  0  0
    2.9448  -10.2205   17.8155 C   0  0  0  0  0  0  0  0  0  0  0  0
    9.9349   -4.2352   17.4143 C   0  0  0  0  0  0  0  0  0  0  0  0
    9.4584   -5.0160   18.4724 C   0  0  0  0  0  0  0  0  0  0  0  0
    6.5232   -6.3428   15.2174 C   0  0  0  0  0  0  0  0  0  0  0  0
    5.7084   -7.8270   16.9156 C   0  0  0  0  0  0  0  0  0  0  0  0
    7.5903   -6.4645   17.3888 C   0  0  0  0  0  0  0  0  0  0  0  0
    3.9357  -10.6297   18.5956 N   0  0  0  0  0  0  0  0  0  0  0  0
   11.1054   -3.3764   21.3192 C   0  0  0  0  0  0  0  0  0  0  0  0
    1.2530  -11.7439   21.0515 C   0  0  0  0  0  0  0  0  0  0  0  0
    4.7562   -8.8720   17.3698 C   0  0  0  0  0  0  0  0  0  0  0  0
   -1.1481  -10.3690   21.2312 C   0  0  0  0  0  0  0  0  0  0  0  0
    3.4400   -9.1741   17.0145 N   0  0  0  0  0  0  0  0  0  0  0  0
    9.4322   -4.4103   16.1525 C   0  0  0  0  0  0  0  0  0  0  0  0
   11.2510   -2.9071   18.9206 C   0  0  0  0  0  0  0  0  0  0  0  0
    1.3616   -9.1582   16.0306 C   0  0  0  0  0  0  0  0  0  0  0  0
   -0.4628  -10.7554   22.3327 N   0  0  0  0  0  0  0  0  0  0  0  0
    7.5192   -5.9516   16.0869 C   0  0  0  0  0  0  0  0  0  0  0  0
   -0.6141  -10.6839   20.0084 C   0  0  0  0  0  0  0  0  0  0  0  0
    1.1071  -11.7572   18.5748 C   0  0  0  0  0  0  0  0  0  0  0  0
    2.6364   -8.6397   16.1138 C   0  0  0  0  0  0  0  0  0  0  0  0
   10.7693   -3.6918   19.9774 C   0  0  0  0  0  0  0  0  0  0  0  0
    1.6446  -10.7075   17.7440 C   0  0  0  0  0  0  0  0  0  0  0  0
    5.5949   -7.2455   15.6846 C   0  0  0  0  0  0  0  0  0  0  0  0
  1 19  2  0
  2 24  4  0
  2 28  4  0
  3 19  1  0
  4 26  4  0
  4 33  4  0
  5 20  4  0
  5 27  4  0
  6 18  4  0
  6 21  4  0
  7 13  4  0
  7 25  4  0
  8 16  4  0
  8 17  4  0
  9 14  4  0
  9 17  4  0
 10 14  4  0
 10 32  4  0
 11 20  4  0
 11 29  4  0
 11 30  1  0
 12 18  4  0
 12 23  4  0
 12 33  4  0
 13 14  4  0
 13 24  4  0
 15 28  4  0
 15 34  4  0
 16 21  1  0
 16 34  4  0
 17 28  4  0
 19 32  1  0
 21 23  4  0
 22 27  4  0
 22 29  4  0
 23 31  4  0
 25 32  4  0
 26 31  4  0
 30 33  1  0
M  END
$$$$

 Created by Python create_sdf_string function

 34 40  0  0  0  0  0  0  0  0999 V2000
   11.6758   -2.3607   21.5466 N   0  0  0  0  0  0  0  0  0  0  0  0
    8.5330   -5.0675   15.6677 C   0  0  0  0  0  0  0  0  0  0  0  0
   10.7437   -4.1413   22.3474 O   0  0  0  0  0  0  0  0  0  0  0  0
    0.9183  -10.2370   16.7595 N   0  0  0  0  0  0  0  0  0  0  0  0
    0.6269  -11.3641   22.3835 C   0  0  0  0  0  0  0  0  0  0  0  0
    4.9599   -9.8855   18.2583 C   0  0  0  0  0  0  0  0  0  0  0  0
   10.9021   -3.2974   17.6208 C   0  0  0  0  0  0  0  0  0  0  0  0
    6.6005   -7.5255   17.8556 C   0  0  0  0  0  0  0  0  0  0  0  0
    8.4978   -6.0165   18.3326 N   0  0  0  0  0  0  0  0  0  0  0  0
    9.9064   -4.7029   19.7357 C   0  0  0  0  0  0  0  0  0  0  0  0
    0.6068  -11.3879   19.7917 C   0  0  0  0  0  0  0  0  0  0  0  0
    2.9222  -10.1374   17.7883 C   0  0  0  0  0  0  0  0  0  0  0  0
    9.9452   -4.2610   17.3843 N   0  0  0  0  0  0  0  0  0  0  0  0
    6.4868   -6.3556   15.1850 C   0  0  0  0  0  0  0  0  0  0  0  0
    5.6665   -7.7872   16.9056 F   0  0  0  0  0  0  0  0  0  0  0  0
    7.6607   -6.4889   17.3874 C   0  0  0  0  0  0  0  0  0  0  0  0
    3.8749  -10.6687   18.6240 N   0  0  0  0  0  0  0  0  0  0  0  0
   10.9848   -3.3966   21.3119 C   0  0  0  0  0  0  0  0  0  0  0  0
    1.2109  -11.7204   21.0643 C   0  0  0  0  0  0  0  0  0  0  0  0
    4.7886   -8.9017   17.4248 C   0  0  0  0  0  0  0  0  0  0  0  0
   -1.1332  -10.3390   21.2268 C   0  0  0  0  0  0  0  0  0  0  0  0
    3.3873   -9.1328   16.9977 N   0  0  0  0  0  0  0  0  0  0  0  0
    9.4643   -4.5328   16.2446 C   0  0  0  0  0  0  0  0  0  0  0  0
   11.2277   -2.9108   18.9656 C   0  0  0  0  0  0  0  0  0  0  0  0
    1.3319   -9.0655   16.0061 C   0  0  0  0  0  0  0  0  0  0  0  0
   -0.4422  -10.7458   22.2987 N   0  0  0  0  0  0  0  0  0  0  0  0
    7.5592   -5.9360   16.0745 C   0  0  0  0  0  0  0  0  0  0  0  0
   -0.6296  -10.7188   19.9960 C   0  0  0  0  0  0  0  0  0  0  0  0
    1.2254  -11.8004   18.5302 C   0  0  0  0  0  0  0  0  0  0  0  0
    2.5955   -8.6450   16.1022 C   0  0  0  0  0  0  0  0  0  0  0  0
   10.7651   -3.6143   19.9884 C   0  0  0  0  0  0  0  0  0  0  0  0
    1.6736  -10.7647   17.8104 C   0  0  0  0  0  0  0  0  0  0  0  0
    5.5966   -7.1997   15.7002 C   0  0  0  0  0  0  0  0  0  0  0  0
    9.5226   -5.0127   18.5291 He  0  0  0  0  0  0  0  0  0  0  0  0
  1 18  2  0
  2 23  4  0
  2 27  4  0
  3 18  1  0
  4 25  4  0
  4 29  2  0
  4 32  4  0
  5 19  4  0
  6 17  4  0
  6 20  4  0
  7 13  4  0
  7 24  4  0
  8 15  4  0
  8 16  4  0
  9 10  3  0
  9 16  4  0
 10 31  4  0
 11 19  4  0
 11 28  4  0
 11 29  1  0
 12 17  4  0
 12 22  4  0
 12 32  4  0
 13 17  2  0
 13 23  4  0
 14 21  2  0
 14 27  4  0
 14 33  4  0
 15 20  1  0
 15 27  1  0
 15 33  4  0
 16 27  4  0
 17 19  4  0
 18 31  1  0
 20 22  4  0
 21 26  4  0
 21 28  4  0
 22 30  4  0
 25 30  4  0
 29 32  1  0
M  END
$$$$

 Created by Python create_sdf_string function

 34 39  0  0  0  0  0  0  0  0999 V2000
   11.6856   -2.3293   21.5597 O   0  0  0  0  0  0  0  0  0  0  0  0
    8.5170   -5.0874   15.6718 C   0  0  0  0  0  0  0  0  0  0  0  0
   10.7424   -4.0943   22.2952 O   0  0  0  0  0  0  0  0  0  0  0  0
    0.8932  -10.1766   16.7809 N   0  0  0  0  0  0  0  0  0  0  0  0
    0.6761  -11.4094   22.3120 C   0  0  0  0  0  0  0  0  0  0  0  0
    4.9648   -9.8731   18.3214 C   0  0  0  0  0  0  0  0  0  0  0  0
   10.8898   -3.2777   17.6335 C   0  0  0  0  0  0  0  0  0  0  0  0
    6.6809   -7.4554   17.7814 C   0  0  0  0  0  0  0  0  0  0  0  0
    8.5447   -5.9855   18.2816 N   0  0  0  0  0  0  0  0  0  0  0  0
    9.8944   -4.7355   19.7479 C   0  0  0  0  0  0  0  0  0  0  0  0
    0.5934  -11.3790   19.8758 C   0  0  0  0  0  0  0  0  0  0  0  0
    2.9246  -10.1982   17.7938 C   0  0  0  0  0  0  0  0  0  0  0  0
    9.9609   -4.2601   17.4088 C   0  0  0  0  0  0  0  0  0  0  0  0
    9.4691   -5.0188   18.5018 C   0  0  0  0  0  0  0  0  0  0  0  0
    6.5233   -6.3554   15.2435 C   0  0  0  0  0  0  0  0  0  0  0  0
    5.6744   -7.8404   16.9247 C   0  0  0  0  0  0  0  0  0  0  0  0
    7.5965   -6.4801   17.4060 C   0  0  0  0  0  0  0  0  0  0  0  0
    3.8848  -10.6547   18.5989 N   0  0  0  0  0  0  0  0  0  0  0  0
   11.0690   -3.3456   21.3084 C   0  0  0  0  0  0  0  0  0  0  0  0
    1.2101  -11.7472   21.0699 C   0  0  0  0  0  0  0  0  0  0  0  0
    4.7324   -8.8970   17.3831 C   0  0  0  0  0  0  0  0  0  0  0  0
   -1.1662  -10.3619   21.1776 C   0  0  0  0  0  0  0  0  0  0  0  0
    3.4128   -9.1625   17.0095 N   0  0  0  0  0  0  0  0  0  0  0  0
    9.4972   -4.4546   16.1739 C   0  0  0  0  0  0  0  0  0  0  0  0
   11.2323   -2.9210   18.9038 C   0  0  0  0  0  0  0  0  0  0  0  0
    1.3397   -9.1435   16.0064 C   0  0  0  0  0  0  0  0  0  0  0  0
   -0.4958  -10.7172   22.3023 N   0  0  0  0  0  0  0  0  0  0  0  0
    7.5418   -5.9823   16.0930 C   0  0  0  0  0  0  0  0  0  0  0  0
   -0.6314  -10.7113   19.9738 C   0  0  0  0  0  0  0  0  0  0  0  0
    1.1614  -11.7599   18.5741 C   0  0  0  0  0  0  0  0  0  0  0  0
    2.6250   -8.6292   16.1298 C   0  0  0  0  0  0  0  0  0  0  0  0
   10.7350   -3.6723   19.9644 C   0  0  0  0  0  0  0  0  0  0  0  0
    1.6504  -10.7062   17.7433 C   0  0  0  0  0  0  0  0  0  0  0  0
    5.5864   -7.2454   15.7113 C   0  0  0  0  0  0  0  0  0  0  0  0
  1 19  2  0
  2 24  4  0
  2 28  4  0
  3 19  1  0
  4 26  4  0
  4 33  4  0
  5 20  4  0
  5 27  4  0
  6 18  4  0
  6 21  4  0
  7 13  4  0
  7 25  4  0
  8 16  4  0
  8 17  4  0
  9 14  4  0
  9 17  4  0
 10 14  4  0
 10 32  4  0
 11 20  4  0
 11 29  4  0
 11 30  1  0
 12 18  4  0
 12 23  4  0
 12 33  4  0
 13 14  4  0
 13 24  4  0
 15 28  4  0
 15 34  4  0
 16 21  1  0
 16 34  4  0
 17 28  4  0
 19 32  1  0
 21 23  4  0
 22 27  4  0
 22 29  4  0
 23 31  4  0
 25 32  4  0
 26 31  4  0
 30 33  1  0
M  END
$$$$

 Created by Python create_sdf_string function

 34 41  0  0  0  0  0  0  0  0999 V2000
   11.6438   -2.2502   21.5485 O   0  0  0  0  0  0  0  0  0  0  0  0
    8.5358   -5.0702   15.6425 C   0  0  0  0  0  0  0  0  0  0  0  0
   10.6678   -4.1249   22.3203 O   0  0  0  0  0  0  0  0  0  0  0  0
    0.9540  -10.2119   16.7133 N   0  0  0  0  0  0  0  0  0  0  0  0
    0.7257  -11.4684   22.2362 C   0  0  0  0  0  0  0  0  0  0  0  0
    4.9385   -9.8313   18.4044 C   0  0  0  0  0  0  0  0  0  0  0  0
   10.9218   -3.1609   17.6201 C   0  0  0  0  0  0  0  0  0  0  0  0
    6.7587   -7.4560   17.7296 C   0  0  0  0  0  0  0  0  0  0  0  0
    8.6178   -5.9669   18.2385 N   0  0  0  0  0  0  0  0  0  0  0  0
    9.8090   -4.7495   19.7055 C   0  0  0  0  0  0  0  0  0  0  0  0
    0.6220  -11.3935   19.8381 C   0  0  0  0  0  0  0  0  0  0  0  0
    2.9862  -10.0743   17.7220 C   0  0  0  0  0  0  0  0  0  0  0  0
    9.9658   -4.2000   17.4009 C   0  0  0  0  0  0  0  0  0  0  0  0
    9.3865   -4.9639   18.5068 C   0  0  0  0  0  0  0  0  0  0  0  0
    6.4899   -6.3498   15.2504 C   0  0  0  0  0  0  0  0  0  0  0  0
    5.6225   -7.8582   16.8958 C   0  0  0  0  0  0  0  0  0  0  0  0
    7.6658   -6.4157   17.4707 C   0  0  0  0  0  0  0  0  0  0  0  0
    3.7732  -10.7090   18.4894 N   0  0  0  0  0  0  0  0  0  0  0  0
   11.0397   -3.4087   21.2494 C   0  0  0  0  0  0  0  0  0  0  0  0
    1.2293  -11.7780   20.9932 C   0  0  0  0  0  0  0  0  0  0  0  0
    4.7949   -8.9213   17.3575 C   0  0  0  0  0  0  0  0  0  0  0  0
   -1.1788  -10.3513   21.1789 C   0  0  0  0  0  0  0  0  0  0  0  0
    3.3441   -9.2002   16.9766 N   0  0  0  0  0  0  0  0  0  0  0  0
    9.5280   -4.4245   16.1916 C   0  0  0  0  0  0  0  0  0  0  0  0
   11.2780   -2.9601   18.8991 C   0  0  0  0  0  0  0  0  0  0  0  0
    1.3003   -9.0750   16.0657 C   0  0  0  0  0  0  0  0  0  0  0  0
   -0.5526  -10.6975   22.3299 N   0  0  0  0  0  0  0  0  0  0  0  0
    7.5655   -5.9933   16.1697 C   0  0  0  0  0  0  0  0  0  0  0  0
   -0.6684  -10.7322   19.9722 C   0  0  0  0  0  0  0  0  0  0  0  0
    1.1619  -11.7152   18.6239 C   0  0  0  0  0  0  0  0  0  0  0  0
    2.6887   -8.6476   16.1478 C   0  0  0  0  0  0  0  0  0  0  0  0
   10.6366   -3.7616   19.9178 C   0  0  0  0  0  0  0  0  0  0  0  0
    1.5864  -10.6943   17.7248 C   0  0  0  0  0  0  0  0  0  0  0  0
    5.5889   -7.2450   15.7129 C   0  0  0  0  0  0  0  0  0  0  0  0
  2 24  4  0
  2 28  4  0
  3 19  1  0
  4 26  4  0
  4 33  4  0
  5 20  4  0
  5 27  4  0
  6 18  4  0
  6 21  4  0
  7 13  4  0
  7 25  4  0
  7 32  1  0
  8 16  4  0
  8 17  4  0
  9 14  4  0
  9 17  4  0
  9 30  1  0
 10 11  2  0
 10 14  3  0
 10 32  4  0
 11 20  4  0
 11 29  4  0
 11 30  1  0
 12 18  4  0
 12 23  4  0
 12 33  4  0
 13 14  4  0
 13 24  4  0
 15 28  2  0
 15 34  4  0
 16 21  1  0
 16 34  4  0
 17 27  2  0
 17 28  4  0
 19 32  4  0
 22 27  4  0
 22 29  4  0
 23 31  4  0
 25 32  4  0
 26 31  4  0
 30 33  1  0
M  END
$$$$

 Created by Python create_sdf_string function

 34 39  0  0  0  0  0  0  0  0999 V2000
   11.6506   -2.3112   21.5427 O   0  0  0  0  0  0  0  0  0  0  0  0
    8.5115   -5.0830   15.6645 C   0  0  0  0  0  0  0  0  0  0  0  0
   10.6888   -4.0866   22.2434 O   0  0  0  0  0  0  0  0  0  0  0  0
    0.8679  -10.1534   16.7648 N   0  0  0  0  0  0  0  0  0  0  0  0
    0.7049  -11.4689   22.2558 C   0  0  0  0  0  0  0  0  0  0  0  0
    4.9260   -9.8540   18.3515 C   0  0  0  0  0  0  0  0  0  0  0  0
   10.8818   -3.2232   17.6105 C   0  0  0  0  0  0  0  0  0  0  0  0
    6.7226   -7.4737   17.7681 C   0  0  0  0  0  0  0  0  0  0  0  0
    8.5512   -5.9295   18.2549 N   0  0  0  0  0  0  0  0  0  0  0  0
    9.8437   -4.7177   19.7104 C   0  0  0  0  0  0  0  0  0  0  0  0
    0.5734  -11.3843   19.8627 C   0  0  0  0  0  0  0  0  0  0  0  0
    2.9028  -10.2105   17.7656 C   0  0  0  0  0  0  0  0  0  0  0  0
    9.9485   -4.2021   17.3953 C   0  0  0  0  0  0  0  0  0  0  0  0
    9.4336   -4.9966   18.4387 C   0  0  0  0  0  0  0  0  0  0  0  0
    6.5404   -6.3544   15.2943 C   0  0  0  0  0  0  0  0  0  0  0  0
    5.7068   -7.8698   16.9482 C   0  0  0  0  0  0  0  0  0  0  0  0
    7.6391   -6.4660   17.4221 C   0  0  0  0  0  0  0  0  0  0  0  0
    3.8477  -10.6642   18.5910 N   0  0  0  0  0  0  0  0  0  0  0  0
   11.0532   -3.3494   21.2914 C   0  0  0  0  0  0  0  0  0  0  0  0
    1.2116  -11.7609   21.0228 C   0  0  0  0  0  0  0  0  0  0  0  0
    4.7305   -8.9113   17.3886 C   0  0  0  0  0  0  0  0  0  0  0  0
   -1.1878  -10.3835   21.1694 C   0  0  0  0  0  0  0  0  0  0  0  0
    3.4001   -9.1832   16.9904 N   0  0  0  0  0  0  0  0  0  0  0  0
    9.4882   -4.3984   16.1195 C   0  0  0  0  0  0  0  0  0  0  0  0
   11.2676   -2.9133   18.9099 C   0  0  0  0  0  0  0  0  0  0  0  0
    1.3269   -9.1280   16.0058 C   0  0  0  0  0  0  0  0  0  0  0  0
   -0.4885  -10.7509   22.3031 C   0  0  0  0  0  0  0  0  0  0  0  0
    7.5642   -5.9692   16.1205 C   0  0  0  0  0  0  0  0  0  0  0  0
   -0.6489  -10.7262   19.9491 C   0  0  0  0  0  0  0  0  0  0  0  0
    1.1241  -11.7328   18.5581 C   0  0  0  0  0  0  0  0  0  0  0  0
    2.6165   -8.6291   16.1156 C   0  0  0  0  0  0  0  0  0  0  0  0
   10.7221   -3.6806   19.9467 C   0  0  0  0  0  0  0  0  0  0  0  0
    1.6042  -10.7032   17.7209 C   0  0  0  0  0  0  0  0  0  0  0  0
    5.6117   -7.2533   15.7196 C   0  0  0  0  0  0  0  0  0  0  0  0
  1 19  2  0
  2 24  4  0
  2 28  4  0
  3 19  1  0
  4 26  4  0
  4 33  4  0
  5 20  4  0
  5 27  4  0
  6 18  4  0
  6 21  4  0
  7 13  4  0
  7 25  4  0
  8 16  4  0
  8 17  4  0
  9 14  4  0
  9 17  4  0
 10 14  4  0
 10 32  4  0
 11 20  4  0
 11 29  4  0
 11 30  1  0
 12 18  4  0
 12 23  4  0
 12 33  4  0
 13 14  4  0
 13 24  4  0
 15 28  4  0
 15 34  4  0
 16 21  1  0
 16 34  4  0
 17 28  4  0
 19 32  1  0
 21 23  4  0
 22 27  4  0
 22 29  4  0
 23 31  4  0
 25 32  4  0
 26 31  4  0
 30 33  1  0
M  END
$$$$

 Created by Python create_sdf_string function

 34 45  0  0  0  0  0  0  0  0999 V2000
   11.6490   -2.2839   21.5195 O   0  0  0  0  0  0  0  0  0  0  0  0
    8.5241   -5.0058   15.6262 C   0  0  0  0  0  0  0  0  0  0  0  0
   10.7745   -4.0088   22.3151 O   0  0  0  0  0  0  0  0  0  0  0  0
    0.8970  -10.1471   16.7168 N   0  0  0  0  0  0  0  0  0  0  0  0
    0.7055  -11.4957   22.2952 C   0  0  0  0  0  0  0  0  0  0  0  0
    4.9596   -9.7894   18.3529 O   0  0  0  0  0  0  0  0  0  0  0  0
   10.9300   -3.2149   17.6415 C   0  0  0  0  0  0  0  0  0  0  0  0
    6.7524   -7.3915   17.8518 C   0  0  0  0  0  0  0  0  0  0  0  0
    8.5799   -5.8775   18.2920 N   0  0  0  0  0  0  0  0  0  0  0  0
    9.8032   -4.7478   19.7458 C   0  0  0  0  0  0  0  0  0  0  0  0
    0.5366  -11.3795   19.9481 C   0  0  0  0  0  0  0  0  0  0  0  0
    2.8729  -10.2319   17.7550 C   0  0  0  0  0  0  0  0  0  0  0  0
    9.9267   -4.1466   17.3973 C   0  0  0  0  0  0  0  0  0  0  0  0
    9.4277   -5.0022   18.3588 C   0  0  0  0  0  0  0  0  0  0  0  0
    5.7042   -7.8625   16.9578 C   0  0  0  0  0  0  0  0  0  0  0  0
    7.7328   -6.4615   17.4000 C   0  0  0  0  0  0  0  0  0  0  0  0
    3.7977  -10.7207   18.5949 N   0  0  0  0  0  0  0  0  0  0  0  0
   11.0014   -3.3658   21.2904 C   0  0  0  0  0  0  0  0  0  0  0  0
    1.2035  -11.6903   20.9274 C   0  0  0  0  0  0  0  0  0  0  0  0
    4.7215   -8.8697   17.3573 C   0  0  0  0  0  0  0  0  0  0  0  0
   -1.2081  -10.4175   21.1536 C   0  0  0  0  0  0  0  0  0  0  0  0
    3.4431   -9.1833   17.0296 N   0  0  0  0  0  0  0  0  0  0  0  0
    9.5632   -4.3832   16.1669 C   0  0  0  0  0  0  0  0  0  0  0  0
   11.2504   -2.8964   18.9555 C   0  0  0  0  0  0  0  0  0  0  0  0
    1.3425   -9.1229   16.0655 C   0  0  0  0  0  0  0  0  0  0  0  0
   -0.4755  -10.7456   22.2933 C   0  0  0  0  0  0  0  0  0  0  0  0
    7.6457   -5.9650   16.1139 C   0  0  0  0  0  0  0  0  0  0  0  0
   -0.7001  -10.7014   19.9821 C   0  0  0  0  0  0  0  0  0  0  0  0
    1.1601  -11.6945   18.5932 C   0  0  0  0  0  0  0  0  0  0  0  0
    2.5841   -8.5895   16.1008 C   0  0  0  0  0  0  0  0  0  0  0  0
   10.7690   -3.6660   19.9783 C   0  0  0  0  0  0  0  0  0  0  0  0
    1.5272  -10.7789   17.7499 C   0  0  0  0  0  0  0  0  0  0  0  0
    5.6230   -7.2599   15.6616 C   0  0  0  0  0  0  0  0  0  0  0  0
    6.5510   -6.3810   15.2940 He  0  0  0  0  0  0  0  0  0  0  0  0
  1 11  1  0
  1 18  2  0
  2 23  4  0
  2 27  4  0
  3 18  1  0
  4 25  4  0
  4 32  4  0
  5 19  4  0
  5 21  2  0
  5 26  4  0
  6 17  4  0
  6 20  4  0
  7 13  4  0
  7 24  2  0
  7 32  2  0
  8 15  4  0
  8 16  4  0
  9 14  4  0
  9 16  4  0
  9 29  2  0
 10 14  4  0
 10 31  4  0
 11 19  4  0
 11 23  4  0
 11 28  4  0
 11 29  1  0
 12 17  4  0
 12 22  4  0
 12 32  4  0
 13 14  4  0
 13 23  4  0
 13 27  1  0
 15 20  1  0
 15 29  1  0
 15 33  4  0
 16 27  4  0
 18 31  1  0
 20 22  3  0
 21 26  4  0
 21 28  4  0
 22 30  4  0
 23 31  1  0
 24 31  4  0
 25 30  4  0
 29 32  1  0
M  END
$$$$

 Created by Python create_sdf_string function

 34 39  0  0  0  0  0  0  0  0999 V2000
   11.6621   -2.2965   21.5267 O   0  0  0  0  0  0  0  0  0  0  0  0
    8.5254   -5.0451   15.6167 C   0  0  0  0  0  0  0  0  0  0  0  0
   10.7385   -4.0489   22.2950 O   0  0  0  0  0  0  0  0  0  0  0  0
    0.8560  -10.1470   16.7710 N   0  0  0  0  0  0  0  0  0  0  0  0
    0.6902  -11.4683   22.2905 C   0  0  0  0  0  0  0  0  0  0  0  0
    4.9370   -9.8054   18.3428 C   0  0  0  0  0  0  0  0  0  0  0  0
   10.8837   -3.2229   17.6512 C   0  0  0  0  0  0  0  0  0  0  0  0
    6.7374   -7.4264   17.7853 C   0  0  0  0  0  0  0  0  0  0  0  0
    8.5564   -5.9426   18.2418 N   0  0  0  0  0  0  0  0  0  0  0  0
    9.8457   -4.7288   19.7407 C   0  0  0  0  0  0  0  0  0  0  0  0
    0.5254  -11.3766   19.8813 C   0  0  0  0  0  0  0  0  0  0  0  0
    2.9000  -10.2296   17.7868 C   0  0  0  0  0  0  0  0  0  0  0  0
    9.9549   -4.1840   17.3785 C   0  0  0  0  0  0  0  0  0  0  0  0
    9.4272   -4.9855   18.4161 C   0  0  0  0  0  0  0  0  0  0  0  0
    6.5904   -6.3843   15.2721 C   0  0  0  0  0  0  0  0  0  0  0  0
    5.7282   -7.8480   16.9591 C   0  0  0  0  0  0  0  0  0  0  0  0
    7.6585   -6.4411   17.4136 C   0  0  0  0  0  0  0  0  0  0  0  0
    3.8878  -10.6465   18.5900 N   0  0  0  0  0  0  0  0  0  0  0  0
   11.0563   -3.3264   21.3068 C   0  0  0  0  0  0  0  0  0  0  0  0
    1.1871  -11.7318   21.0322 C   0  0  0  0  0  0  0  0  0  0  0  0
    4.7275   -8.8764   17.3832 C   0  0  0  0  0  0  0  0  0  0  0  0
   -1.2232  -10.4157   21.1967 C   0  0  0  0  0  0  0  0  0  0  0  0
    3.3976   -9.1734   16.9963 N   0  0  0  0  0  0  0  0  0  0  0  0
    9.5120   -4.3364   16.0855 C   0  0  0  0  0  0  0  0  0  0  0  0
   11.2502   -2.9087   18.9433 C   0  0  0  0  0  0  0  0  0  0  0  0
    1.3255   -9.1386   16.0060 C   0  0  0  0  0  0  0  0  0  0  0  0
   -0.5137  -10.7638   22.3346 C   0  0  0  0  0  0  0  0  0  0  0  0
    7.5962   -5.9547   16.0815 C   0  0  0  0  0  0  0  0  0  0  0  0
   -0.6847  -10.7241   19.9862 C   0  0  0  0  0  0  0  0  0  0  0  0
    1.0706  -11.7332   18.5570 C   0  0  0  0  0  0  0  0  0  0  0  0
    2.6138   -8.6144   16.1158 C   0  0  0  0  0  0  0  0  0  0  0  0
   10.7172   -3.6764   19.9798 C   0  0  0  0  0  0  0  0  0  0  0  0
    1.5762  -10.7116   17.7331 C   0  0  0  0  0  0  0  0  0  0  0  0
    5.6490   -7.2802   15.7078 C   0  0  0  0  0  0  0  0  0  0  0  0
  1 19  2  0
  2 24  4  0
  2 28  4  0
  3 19  1  0
  4 26  4  0
  4 33  4  0
  5 20  4  0
  5 27  4  0
  6 18  4  0
  6 21  4  0
  7 13  4  0
  7 25  4  0
  8 16  4  0
  8 17  4  0
  9 14  4  0
  9 17  4  0
 10 14  4  0
 10 32  4  0
 11 20  4  0
 11 29  4  0
 11 30  1  0
 12 18  4  0
 12 23  4  0
 12 33  4  0
 13 14  4  0
 13 24  4  0
 15 28  4  0
 15 34  4  0
 16 21  1  0
 16 34  4  0
 17 28  4  0
 19 32  1  0
 21 23  4  0
 22 27  4  0
 22 29  4  0
 23 31  4  0
 25 32  4  0
 26 31  4  0
 30 33  1  0
M  END
$$$$

 Created by Python create_sdf_string function

 34 39  0  0  0  0  0  0  0  0999 V2000
   11.6439   -2.2915   21.4565 O   0  0  0  0  0  0  0  0  0  0  0  0
   10.7280   -4.0767   22.3135 O   0  0  0  0  0  0  0  0  0  0  0  0
    0.8192  -10.1358   16.8398 N   0  0  0  0  0  0  0  0  0  0  0  0
    0.6706  -11.4489   22.2838 C   0  0  0  0  0  0  0  0  0  0  0  0
    4.9507   -9.8568   18.4212 C   0  0  0  0  0  0  0  0  0  0  0  0
   10.9179   -3.2516   17.5790 C   0  0  0  0  0  0  0  0  0  0  0  0
    6.7702   -7.4877   17.7936 C   0  0  0  0  0  0  0  0  0  0  0  0
    8.5159   -5.8747   18.2612 N   0  0  0  0  0  0  0  0  0  0  0  0
    9.9233   -4.7749   19.7422 C   0  0  0  0  0  0  0  0  0  0  0  0
    0.4625  -11.3725   19.8815 C   0  0  0  0  0  0  0  0  0  0  0  0
    2.8293  -10.2248   17.8280 C   0  0  0  0  0  0  0  0  0  0  0  0
    9.9378   -4.1418   17.3812 C   0  0  0  0  0  0  0  0  0  0  0  0
    9.3776   -5.0223   18.4266 C   0  0  0  0  0  0  0  0  0  0  0  0
    6.6140   -6.4099   15.2480 C   0  0  0  0  0  0  0  0  0  0  0  0
    5.7077   -7.8873   16.9140 C   0  0  0  0  0  0  0  0  0  0  0  0
    7.6973   -6.4642   17.4363 C   0  0  0  0  0  0  0  0  0  0  0  0
    3.9082  -10.6171   18.5583 N   0  0  0  0  0  0  0  0  0  0  0  0
   11.1013   -3.3239   21.3175 C   0  0  0  0  0  0  0  0  0  0  0  0
    1.1728  -11.7258   21.0579 C   0  0  0  0  0  0  0  0  0  0  0  0
    4.6892   -8.8757   17.4959 C   0  0  0  0  0  0  0  0  0  0  0  0
   -1.2439  -10.4493   21.1608 S   0  0  0  0  0  0  0  0  0  0  0  0
    3.4460   -9.1980   17.0161 N   0  0  0  0  0  0  0  0  0  0  0  0
    9.4784   -4.3252   16.0830 C   0  0  0  0  0  0  0  0  0  0  0  0
   11.3067   -2.8795   18.8975 C   0  0  0  0  0  0  0  0  0  0  0  0
    1.3183   -9.2239   15.9775 C   0  0  0  0  0  0  0  0  0  0  0  0
   -0.4963  -10.8455   22.3776 C   0  0  0  0  0  0  0  0  0  0  0  0
    7.6358   -5.8915   16.0585 C   0  0  0  0  0  0  0  0  0  0  0  0
   -0.7158  -10.7248   19.9367 C   0  0  0  0  0  0  0  0  0  0  0  0
    1.0336  -11.7440   18.5294 C   0  0  0  0  0  0  0  0  0  0  0  0
    2.5419   -8.6176   16.1250 C   0  0  0  0  0  0  0  0  0  0  0  0
    1.5867  -10.7096   17.7701 C   0  0  0  0  0  0  0  0  0  0  0  0
    5.6759   -7.2662   15.7066 C   0  0  0  0  0  0  0  0  0  0  0  0
    8.5083   -5.0524   15.6436 He  0  0  0  0  0  0  0  0  0  0  0  0
   10.7367   -3.7089   20.0065 He  0  0  0  0  0  0  0  0  0  0  0  0
  1 18  2  0
  2 18  1  0
  3 25  4  0
  3 31  4  0
  4 19  4  0
  4 26  4  0
  5 17  4  0
  5 20  4  0
  6 12  4  0
  6 24  4  0
  7 15  4  0
  7 16  4  0
  8 13  4  0
  8 16  4  0
  9 13  4  0
 10 19  4  0
 10 20  2  0
 10 28  4  0
 10 29  1  0
 11 17  4  0
 11 22  4  0
 11 31  3  0
 12 13  4  0
 12 23  4  0
 13 25  4  0
 13 27  1  0
 14 27  4  0
 14 32  4  0
 15 20  1  0
 15 30  2  0
 15 31  2  0
 15 32  4  0
 16 27  4  0
 20 22  4  0
 21 26  4  0
 21 28  4  0
 22 30  4  0
 25 30  4  0
 29 31  1  0
M  END
$$$$

 Created by Python create_sdf_string function

 34 39  0  0  0  0  0  0  0  0999 V2000
   11.6682   -2.2979   21.4761 O   0  0  0  0  0  0  0  0  0  0  0  0
    8.4889   -5.0390   15.6111 C   0  0  0  0  0  0  0  0  0  0  0  0
   10.7249   -4.0830   22.2739 O   0  0  0  0  0  0  0  0  0  0  0  0
    0.8169  -10.1626   16.8118 N   0  0  0  0  0  0  0  0  0  0  0  0
    0.6718  -11.4700   22.2614 C   0  0  0  0  0  0  0  0  0  0  0  0
    4.9332   -9.8283   18.3949 C   0  0  0  0  0  0  0  0  0  0  0  0
   10.9034   -3.2203   17.6090 C   0  0  0  0  0  0  0  0  0  0  0  0
    6.7471   -7.4623   17.7616 C   0  0  0  0  0  0  0  0  0  0  0  0
    8.5281   -5.9328   18.2636 N   0  0  0  0  0  0  0  0  0  0  0  0
    9.9134   -4.7325   19.7266 C   0  0  0  0  0  0  0  0  0  0  0  0
    0.4922  -11.3997   19.8932 C   0  0  0  0  0  0  0  0  0  0  0  0
    2.8881  -10.2261   17.8210 C   0  0  0  0  0  0  0  0  0  0  0  0
    9.9365   -4.1810   17.3753 C   0  0  0  0  0  0  0  0  0  0  0  0
    9.4408   -4.9782   18.4326 C   0  0  0  0  0  0  0  0  0  0  0  0
    6.6109   -6.4110   15.2685 C   0  0  0  0  0  0  0  0  0  0  0  0
    5.7142   -7.8817   16.9596 C   0  0  0  0  0  0  0  0  0  0  0  0
    7.6526   -6.4517   17.4118 C   0  0  0  0  0  0  0  0  0  0  0  0
    3.8573  -10.6449   18.6250 N   0  0  0  0  0  0  0  0  0  0  0  0
   11.0856   -3.3298   21.2932 C   0  0  0  0  0  0  0  0  0  0  0  0
    1.1583  -11.7457   21.0324 C   0  0  0  0  0  0  0  0  0  0  0  0
    4.7179   -8.9035   17.4286 C   0  0  0  0  0  0  0  0  0  0  0  0
   -1.2511  -10.4619   21.2056 C   0  0  0  0  0  0  0  0  0  0  0  0
    3.3909   -9.1807   17.0398 N   0  0  0  0  0  0  0  0  0  0  0  0
    9.4574   -4.3209   16.0684 C   0  0  0  0  0  0  0  0  0  0  0  0
   11.3036   -2.8887   18.9026 C   0  0  0  0  0  0  0  0  0  0  0  0
    1.3283   -9.1967   15.9953 C   0  0  0  0  0  0  0  0  0  0  0  0
   -0.5411  -10.8248   22.3460 C   0  0  0  0  0  0  0  0  0  0  0  0
    7.6093   -5.9472   16.0754 C   0  0  0  0  0  0  0  0  0  0  0  0
   -0.7205  -10.7511   19.9785 C   0  0  0  0  0  0  0  0  0  0  0  0
    1.0359  -11.7451   18.5659 C   0  0  0  0  0  0  0  0  0  0  0  0
    2.5983   -8.6516   16.1288 C   0  0  0  0  0  0  0  0  0  0  0  0
   10.7703   -3.6764   19.9617 C   0  0  0  0  0  0  0  0  0  0  0  0
    1.5663  -10.7059   17.7533 C   0  0  0  0  0  0  0  0  0  0  0  0
    5.6747   -7.2953   15.7092 C   0  0  0  0  0  0  0  0  0  0  0  0
  1 19  2  0
  2 24  4  0
  2 28  4  0
  3 19  1  0
  4 26  4  0
  4 33  4  0
  5 20  4  0
  5 27  4  0
  6 18  4  0
  6 21  4  0
  7 13  4  0
  7 25  4  0
  8 16  4  0
  8 17  4  0
  9 14  4  0
  9 17  4  0
 10 14  4  0
 10 32  4  0
 11 20  4  0
 11 29  4  0
 11 30  1  0
 12 18  4  0
 12 23  4  0
 12 33  4  0
 13 14  4  0
 13 24  4  0
 15 28  4  0
 15 34  4  0
 16 21  1  0
 16 34  4  0
 17 28  4  0
 19 32  1  0
 21 23  4  0
 22 27  4  0
 22 29  4  0
 23 31  4  0
 25 32  4  0
 26 31  4  0
 30 33  1  0
M  END
$$$$

 Created by Python create_sdf_string function

 34 42  0  0  0  0  0  0  0  0999 V2000
   11.6822   -2.2800   21.4694 O   0  0  0  0  0  0  0  0  0  0  0  0
    8.4247   -5.1091   15.6277 C   0  0  0  0  0  0  0  0  0  0  0  0
   10.7376   -4.1009   22.3128 O   0  0  0  0  0  0  0  0  0  0  0  0
    0.7950  -10.1433   16.8374 N   0  0  0  0  0  0  0  0  0  0  0  0
    0.6819  -11.4492   22.2941 C   0  0  0  0  0  0  0  0  0  0  0  0
    4.9463   -9.8571   18.3938 C   0  0  0  0  0  0  0  0  0  0  0  0
   10.8769   -3.2190   17.6343 C   0  0  0  0  0  0  0  0  0  0  0  0
    6.7230   -7.5021   17.7645 C   0  0  0  0  0  0  0  0  0  0  0  0
    8.5088   -5.9754   18.2658 N   0  0  0  0  0  0  0  0  0  0  0  0
    9.9120   -4.6992   19.7202 C   0  0  0  0  0  0  0  0  0  0  0  0
    0.5146  -11.3760   19.9144 C   0  0  0  0  0  0  0  0  0  0  0  0
    2.9174  -10.2736   17.7740 C   0  0  0  0  0  0  0  0  0  0  0  0
    9.9414   -4.1635   17.3939 C   0  0  0  0  0  0  0  0  0  0  0  0
    6.6089   -6.4145   15.2247 C   0  0  0  0  0  0  0  0  0  0  0  0
    5.7249   -7.9248   16.9646 C   0  0  0  0  0  0  0  0  0  0  0  0
    7.6600   -6.4943   17.4031 C   0  0  0  0  0  0  0  0  0  0  0  0
    3.8725  -10.6249   18.5651 N   0  0  0  0  0  0  0  0  0  0  0  0
   11.0994   -3.3284   21.3194 C   0  0  0  0  0  0  0  0  0  0  0  0
    1.1160  -11.7443   20.9692 C   0  0  0  0  0  0  0  0  0  0  0  0
    4.6987   -8.9015   17.4270 C   0  0  0  0  0  0  0  0  0  0  0  0
   -1.2811  -10.3595   21.2033 C   0  0  0  0  0  0  0  0  0  0  0  0
    3.4113   -9.1258   17.0146 N   0  0  0  0  0  0  0  0  0  0  0  0
   11.3191   -2.8597   18.9189 C   0  0  0  0  0  0  0  0  0  0  0  0
    1.3492   -9.1839   16.0615 C   0  0  0  0  0  0  0  0  0  0  0  0
   -0.5751  -10.8506   22.3429 C   0  0  0  0  0  0  0  0  0  0  0  0
    7.5960   -5.9051   16.0909 C   0  0  0  0  0  0  0  0  0  0  0  0
   -0.6497  -10.7283   19.9663 C   0  0  0  0  0  0  0  0  0  0  0  0
    1.0084  -11.6965   18.4668 C   0  0  0  0  0  0  0  0  0  0  0  0
    2.5778   -8.6425   16.1578 C   0  0  0  0  0  0  0  0  0  0  0  0
   10.7948   -3.6678   19.9069 C   0  0  0  0  0  0  0  0  0  0  0  0
    1.5656  -10.7276   17.7675 C   0  0  0  0  0  0  0  0  0  0  0  0
    5.6908   -7.3185   15.7101 C   0  0  0  0  0  0  0  0  0  0  0  0
    9.4746   -4.9690   18.4255 He  0  0  0  0  0  0  0  0  0  0  0  0
    9.5008   -4.2607   16.0827 He  0  0  0  0  0  0  0  0  0  0  0  0
  1 18  2  0
  2  3  3  0
  2 24  2  0
  2 26  4  0
  2 32  3  0
  3 18  1  0
  4 24  4  0
  4 31  4  0
  5 19  4  0
  5 25  4  0
  6 17  4  0
  6 19  1  0
  6 20  4  0
  6 23  3  0
  7 13  4  0
  7 23  4  0
  8 15  4  0
  8 16  4  0
  8 21  2  0
  9 11  3  0
  9 16  4  0
 10 20  2  0
 10 30  4  0
 11 19  4  0
 11 27  4  0
 11 28  1  0
 12 17  4  0
 12 22  4  0
 12 31  4  0
 14 26  4  0
 14 32  4  0
 15 20  1  0
 15 32  4  0
 16 26  4  0
 18 30  1  0
 20 22  4  0
 21 25  4  0
 21 27  4  0
 22 29  4  0
 23 30  4  0
 24 29  4  0
 28 31  1  0
M  END
$$$$

 Created by Python create_sdf_string function

 34 39  0  0  0  0  0  0  0  0999 V2000
   11.6999   -2.2948   21.4861 O   0  0  0  0  0  0  0  0  0  0  0  0
    8.4782   -5.0266   15.6246 C   0  0  0  0  0  0  0  0  0  0  0  0
   10.7373   -4.0945   22.2782 O   0  0  0  0  0  0  0  0  0  0  0  0
    0.8209  -10.1451   16.8120 N   0  0  0  0  0  0  0  0  0  0  0  0
    0.6610  -11.4795   22.2883 C   0  0  0  0  0  0  0  0  0  0  0  0
    4.9385   -9.8435   18.3726 C   0  0  0  0  0  0  0  0  0  0  0  0
   10.8855   -3.1947   17.6197 C   0  0  0  0  0  0  0  0  0  0  0  0
    6.7362   -7.4746   17.7588 C   0  0  0  0  0  0  0  0  0  0  0  0
    8.5530   -5.9543   18.2661 N   0  0  0  0  0  0  0  0  0  0  0  0
    9.9187   -4.7080   19.7089 C   0  0  0  0  0  0  0  0  0  0  0  0
    0.4810  -11.3844   19.8855 C   0  0  0  0  0  0  0  0  0  0  0  0
    2.8982  -10.2375   17.8101 C   0  0  0  0  0  0  0  0  0  0  0  0
    9.9341   -4.1687   17.3746 C   0  0  0  0  0  0  0  0  0  0  0  0
    9.4524   -4.9822   18.4401 C   0  0  0  0  0  0  0  0  0  0  0  0
    6.6067   -6.4273   15.2712 C   0  0  0  0  0  0  0  0  0  0  0  0
    5.7129   -7.9134   16.9577 C   0  0  0  0  0  0  0  0  0  0  0  0
    7.6424   -6.4756   17.4036 C   0  0  0  0  0  0  0  0  0  0  0  0
    3.8595  -10.6620   18.6028 N   0  0  0  0  0  0  0  0  0  0  0  0
   11.1039   -3.3267   21.2867 C   0  0  0  0  0  0  0  0  0  0  0  0
    1.1352  -11.7605   21.0317 C   0  0  0  0  0  0  0  0  0  0  0  0
    4.7241   -8.9222   17.4171 C   0  0  0  0  0  0  0  0  0  0  0  0
   -1.2761  -10.4009   21.2024 C   0  0  0  0  0  0  0  0  0  0  0  0
    3.4056   -9.1973   17.0352 N   0  0  0  0  0  0  0  0  0  0  0  0
    9.4577   -4.3025   16.0795 C   0  0  0  0  0  0  0  0  0  0  0  0
   11.3035   -2.8674   18.8949 C   0  0  0  0  0  0  0  0  0  0  0  0
    1.3362   -9.1569   16.0292 C   0  0  0  0  0  0  0  0  0  0  0  0
   -0.5832  -10.8198   22.3593 C   0  0  0  0  0  0  0  0  0  0  0  0
    7.5915   -5.9677   16.0840 C   0  0  0  0  0  0  0  0  0  0  0  0
   -0.7106  -10.7099   19.9897 C   0  0  0  0  0  0  0  0  0  0  0  0
    1.0203  -11.7471   18.5389 C   0  0  0  0  0  0  0  0  0  0  0  0
    2.6114   -8.6567   16.1563 C   0  0  0  0  0  0  0  0  0  0  0  0
   10.7850   -3.6574   19.9400 C   0  0  0  0  0  0  0  0  0  0  0  0
    1.5749  -10.7095   17.7444 C   0  0  0  0  0  0  0  0  0  0  0  0
    5.6781   -7.3390   15.7061 C   0  0  0  0  0  0  0  0  0  0  0  0
  1 19  2  0
  2 24  4  0
  2 28  4  0
  3 19  1  0
  4 26  4  0
  4 33  4  0
  5 20  4  0
  5 27  4  0
  6 18  4  0
  6 21  4  0
  7 13  4  0
  7 25  4  0
  8 16  4  0
  8 17  4  0
  9 14  4  0
  9 17  4  0
 10 14  4  0
 10 32  4  0
 11 20  4  0
 11 29  4  0
 11 30  1  0
 12 18  4  0
 12 23  4  0
 12 33  4  0
 13 14  4  0
 13 24  4  0
 15 28  4  0
 15 34  4  0
 16 21  1  0
 16 34  4  0
 17 28  4  0
 19 32  1  0
 21 23  4  0
 22 27  4  0
 22 29  4  0
 23 31  4  0
 25 32  4  0
 26 31  4  0
 30 33  1  0
M  END
$$$$

 Created by Python create_sdf_string function

 34 38  0  0  0  0  0  0  0  0999 V2000
   11.7321   -2.2912   21.4950 O   0  0  0  0  0  0  0  0  0  0  0  0
    8.4217   -5.0501   15.6856 C   0  0  0  0  0  0  0  0  0  0  0  0
   10.6740   -4.1103   22.3246 O   0  0  0  0  0  0  0  0  0  0  0  0
    0.8375  -10.1344   16.7644 N   0  0  0  0  0  0  0  0  0  0  0  0
    0.5986  -11.4290   22.2866 C   0  0  0  0  0  0  0  0  0  0  0  0
    4.9858   -9.8216   18.3496 C   0  0  0  0  0  0  0  0  0  0  0  0
   10.8570   -3.2001   17.6260 C   0  0  0  0  0  0  0  0  0  0  0  0
    6.7296   -7.4620   17.7706 C   0  0  0  0  0  0  0  0  0  0  0  0
    8.5332   -5.9034   18.2910 N   0  0  0  0  0  0  0  0  0  0  0  0
   10.0082   -4.6692   19.6784 C   0  0  0  0  0  0  0  0  0  0  0  0
    0.4940  -11.3835   19.8526 C   0  0  0  0  0  0  0  0  0  0  0  0
    2.9073  -10.2167   17.8004 C   0  0  0  0  0  0  0  0  0  0  0  0
    9.8808   -4.1523   17.3459 C   0  0  0  0  0  0  0  0  0  0  0  0
    9.4842   -5.0000   18.4614 C   0  0  0  0  0  0  0  0  0  0  0  0
    6.6065   -6.4625   15.3018 C   0  0  0  0  0  0  0  0  0  0  0  0
    5.7116   -7.9227   16.9239 C   0  0  0  0  0  0  0  0  0  0  0  0
    7.6525   -6.5187   17.4294 C   0  0  0  0  0  0  0  0  0  0  0  0
    3.8800  -10.6311   18.6159 N   0  0  0  0  0  0  0  0  0  0  0  0
   11.0537   -3.3218   21.3042 C   0  0  0  0  0  0  0  0  0  0  0  0
    1.2015  -11.7611   21.0302 C   0  0  0  0  0  0  0  0  0  0  0  0
    4.7825   -8.9148   17.4004 C   0  0  0  0  0  0  0  0  0  0  0  0
   -1.2806  -10.4410   21.1823 C   0  0  0  0  0  0  0  0  0  0  0  0
    3.3832   -9.2549   17.0531 N   0  0  0  0  0  0  0  0  0  0  0  0
    9.4713   -4.2649   16.0771 C   0  0  0  0  0  0  0  0  0  0  0  0
   11.2771   -2.8559   18.9310 C   0  0  0  0  0  0  0  0  0  0  0  0
    1.2977   -9.1386   15.9968 C   0  0  0  0  0  0  0  0  0  0  0  0
    7.6048   -5.9346   16.0377 C   0  0  0  0  0  0  0  0  0  0  0  0
   -0.6766  -10.7366   19.9954 C   0  0  0  0  0  0  0  0  0  0  0  0
    1.0209  -11.8032   18.5452 C   0  0  0  0  0  0  0  0  0  0  0  0
    2.5586   -8.6384   16.1550 C   0  0  0  0  0  0  0  0  0  0  0  0
   10.7817   -3.6079   19.9749 C   0  0  0  0  0  0  0  0  0  0  0  0
    5.7631   -7.4101   15.7045 C   0  0  0  0  0  0  0  0  0  0  0  0
   -0.6126  -10.8196   22.4304 He  0  0  0  0  0  0  0  0  0  0  0  0
    1.5916  -10.6761   17.7109 He  0  0  0  0  0  0  0  0  0  0  0  0
  1 19  2  0
  2 24  4  0
  2 27  4  0
  3 19  1  0
  4 26  4  0
  5 20  4  0
  6 18  4  0
  6 19  1  0
  6 21  4  0
  6 24  1  0
  7 13  4  0
  7 25  4  0
  8 16  4  0
  8 17  4  0
  9 14  4  0
 10 14  4  0
 10 31  4  0
 11 13  1  0
 11 20  4  0
 11 28  4  0
 11 29  1  0
 12 13  2  0
 12 18  4  0
 12 23  4  0
 13 14  4  0
 13 24  4  0
 15 27  4  0
 15 32  4  0
 16 21  1  0
 16 32  4  0
 17 27  4  0
 19 22  3  0
 19 31  1  0
 21 23  4  0
 23 30  4  0
 24 32  1  0
 25 31  4  0
 26 30  4  0
M  END
$$$$

 Created by Python create_sdf_string function

 34 39  0  0  0  0  0  0  0  0999 V2000
   11.7297   -2.3142   21.5052 O   0  0  0  0  0  0  0  0  0  0  0  0
    8.4489   -5.0358   15.6500 C   0  0  0  0  0  0  0  0  0  0  0  0
   10.6861   -4.0794   22.2831 O   0  0  0  0  0  0  0  0  0  0  0  0
    0.8422  -10.1536   16.7835 N   0  0  0  0  0  0  0  0  0  0  0  0
    0.6352  -11.4667   22.3038 C   0  0  0  0  0  0  0  0  0  0  0  0
    4.9624   -9.8396   18.3644 C   0  0  0  0  0  0  0  0  0  0  0  0
   10.8594   -3.1718   17.6272 C   0  0  0  0  0  0  0  0  0  0  0  0
    6.7286   -7.4691   17.7666 C   0  0  0  0  0  0  0  0  0  0  0  0
    8.5665   -5.9355   18.2658 N   0  0  0  0  0  0  0  0  0  0  0  0
    9.9615   -4.6962   19.7047 C   0  0  0  0  0  0  0  0  0  0  0  0
    0.5039  -11.3962   19.8895 C   0  0  0  0  0  0  0  0  0  0  0  0
    2.8923  -10.2313   17.8136 C   0  0  0  0  0  0  0  0  0  0  0  0
    9.9220   -4.1441   17.3606 C   0  0  0  0  0  0  0  0  0  0  0  0
    9.4697   -4.9623   18.4383 C   0  0  0  0  0  0  0  0  0  0  0  0
    6.6275   -6.4743   15.2809 C   0  0  0  0  0  0  0  0  0  0  0  0
    5.7364   -7.9383   16.9494 C   0  0  0  0  0  0  0  0  0  0  0  0
    7.6395   -6.4688   17.4167 C   0  0  0  0  0  0  0  0  0  0  0  0
    3.8616  -10.6455   18.6285 N   0  0  0  0  0  0  0  0  0  0  0  0
   11.0884   -3.3164   21.2984 C   0  0  0  0  0  0  0  0  0  0  0  0
    1.1626  -11.7561   21.0535 C   0  0  0  0  0  0  0  0  0  0  0  0
    4.7383   -8.9336   17.3997 C   0  0  0  0  0  0  0  0  0  0  0  0
   -1.2901  -10.4510   21.2124 C   0  0  0  0  0  0  0  0  0  0  0  0
    3.3896   -9.2091   17.0287 N   0  0  0  0  0  0  0  0  0  0  0  0
    9.4268   -4.2797   16.0675 C   0  0  0  0  0  0  0  0  0  0  0  0
   11.2686   -2.8426   18.8924 C   0  0  0  0  0  0  0  0  0  0  0  0
    1.3238   -9.1468   16.0030 C   0  0  0  0  0  0  0  0  0  0  0  0
   -0.5985  -10.8198   22.3747 C   0  0  0  0  0  0  0  0  0  0  0  0
    7.5874   -5.9725   16.0958 C   0  0  0  0  0  0  0  0  0  0  0  0
   -0.7065  -10.7552   20.0095 C   0  0  0  0  0  0  0  0  0  0  0  0
    1.0400  -11.7468   18.5382 C   0  0  0  0  0  0  0  0  0  0  0  0
    2.6062   -8.6535   16.1460 C   0  0  0  0  0  0  0  0  0  0  0  0
   10.7819   -3.6287   19.9571 C   0  0  0  0  0  0  0  0  0  0  0  0
    1.5744  -10.7000   17.7366 C   0  0  0  0  0  0  0  0  0  0  0  0
    5.7276   -7.4002   15.7003 C   0  0  0  0  0  0  0  0  0  0  0  0
  1 19  2  0
  2 24  4  0
  2 28  4  0
  3 19  1  0
  4 26  4  0
  4 33  4  0
  5 20  4  0
  5 27  4  0
  6 18  4  0
  6 21  4  0
  7 13  4  0
  7 25  4  0
  8 16  4  0
  8 17  4  0
  9 14  4  0
  9 17  4  0
 10 14  4  0
 10 32  4  0
 11 20  4  0
 11 29  4  0
 11 30  1  0
 12 18  4  0
 12 23  4  0
 12 33  4  0
 13 14  4  0
 13 24  4  0
 15 28  4  0
 15 34  4  0
 16 21  1  0
 16 34  4  0
 17 28  4  0
 19 32  1  0
 21 23  4  0
 22 27  4  0
 22 29  4  0
 23 31  4  0
 25 32  4  0
 26 31  4  0
 30 33  1  0
M  END
$$$$

 Created by Python create_sdf_string function

 34 43  0  0  0  0  0  0  0  0999 V2000
   11.7399   -2.3143   21.5411 O   0  0  0  0  0  0  0  0  0  0  0  0
    8.4434   -5.0702   15.6794 C   0  0  0  0  0  0  0  0  0  0  0  0
   10.7045   -4.0951   22.2812 O   0  0  0  0  0  0  0  0  0  0  0  0
    0.8289  -10.1711   16.7566 N   0  0  0  0  0  0  0  0  0  0  0  0
    0.5935  -11.4474   22.3377 C   0  0  0  0  0  0  0  0  0  0  0  0
    4.9882   -9.8382   18.3260 C   0  0  0  0  0  0  0  0  0  0  0  0
   10.8629   -3.1771   17.6573 C   0  0  0  0  0  0  0  0  0  0  0  0
    6.7716   -7.5314   17.7494 C   0  0  0  0  0  0  0  0  0  0  0  0
    8.5440   -5.9174   18.2436 N   0  0  0  0  0  0  0  0  0  0  0  0
    9.9985   -4.6491   19.6227 C   0  0  0  0  0  0  0  0  0  0  0  0
    0.4869  -11.3690   19.8929 C   0  0  0  0  0  0  0  0  0  0  0  0
    2.9074  -10.2248   17.8088 C   0  0  0  0  0  0  0  0  0  0  0  0
    9.9340   -4.1946   17.3214 C   0  0  0  0  0  0  0  0  0  0  0  0
    9.4503   -4.9927   18.3916 C   0  0  0  0  0  0  0  0  0  0  0  0
    6.6334   -6.4523   15.3142 C   0  0  0  0  0  0  0  0  0  0  0  0
    5.7404   -7.9441   16.9942 C   0  0  0  0  0  0  0  0  0  0  0  0
    7.6316   -6.4532   17.3977 C   0  0  0  0  0  0  0  0  0  0  0  0
    3.8674  -10.6655   18.5831 N   0  0  0  0  0  0  0  0  0  0  0  0
   11.0601   -3.3103   21.2842 C   0  0  0  0  0  0  0  0  0  0  0  0
    1.1895  -11.7685   21.0793 C   0  0  0  0  0  0  0  0  0  0  0  0
    4.6916   -8.9467   17.3935 C   0  0  0  0  0  0  0  0  0  0  0  0
    3.3926   -9.1935   17.0499 N   0  0  0  0  0  0  0  0  0  0  0  0
    9.4073   -4.2976   16.0532 C   0  0  0  0  0  0  0  0  0  0  0  0
   11.2886   -2.8121   18.9457 C   0  0  0  0  0  0  0  0  0  0  0  0
    1.3231   -9.1866   16.0296 C   0  0  0  0  0  0  0  0  0  0  0  0
   -0.5631  -10.8106   22.3466 C   0  0  0  0  0  0  0  0  0  0  0  0
    7.5553   -5.9676   16.0800 C   0  0  0  0  0  0  0  0  0  0  0  0
   -0.6754  -10.7929   20.0045 C   0  0  0  0  0  0  0  0  0  0  0  0
    1.0456  -11.7639   18.5528 C   0  0  0  0  0  0  0  0  0  0  0  0
    2.5888   -8.6366   16.1523 C   0  0  0  0  0  0  0  0  0  0  0  0
   10.7626   -3.6364   19.9568 C   0  0  0  0  0  0  0  0  0  0  0  0
    1.5654  -10.6159   17.7360 C   0  0  0  0  0  0  0  0  0  0  0  0
    5.7680   -7.3606   15.7691 C   0  0  0  0  0  0  0  0  0  0  0  0
   -1.2502  -10.4396   21.1728 He  0  0  0  0  0  0  0  0  0  0  0  0
  1 19  2  0
  2 23  4  0
  2 27  4  0
  3  9  2  0
  3 19  1  0
  4 25  4  0
  4 32  4  0
  5 20  4  0
  5 26  4  0
  6 18  4  0
  6 21  4  0
  7 13  4  0
  7 24  4  0
  8 16  4  0
  8 17  4  0
  9 14  4  0
  9 17  4  0
 10 14  4  0
 10 31  4  0
 11 14  2  0
 11 20  4  0
 11 28  4  0
 11 29  1  0
 12 18  4  0
 12 22  4  0
 12 32  1  0
 13 14  4  0
 13 23  4  0
 15 27  4  0
 15 33  4  0
 16 18  3  0
 16 21  1  0
 16 33  4  0
 17 27  4  0
 19 31  1  0
 20 32  3  0
 21 22  4  0
 22 30  4  0
 23 24  1  0
 24 31  4  0
 25 30  4  0
 26 28  4  0
 29 32  1  0
M  END
$$$$

 Created by Python create_sdf_string function

 34 39  0  0  0  0  0  0  0  0999 V2000
   11.7358   -2.3312   21.5346 O   0  0  0  0  0  0  0  0  0  0  0  0
    8.4586   -5.0330   15.6408 C   0  0  0  0  0  0  0  0  0  0  0  0
   10.6956   -4.0919   22.2539 O   0  0  0  0  0  0  0  0  0  0  0  0
    0.8396  -10.1572   16.7774 N   0  0  0  0  0  0  0  0  0  0  0  0
    0.6349  -11.4786   22.3221 C   0  0  0  0  0  0  0  0  0  0  0  0
    4.9634   -9.8596   18.3447 C   0  0  0  0  0  0  0  0  0  0  0  0
   10.8662   -3.1686   17.6359 C   0  0  0  0  0  0  0  0  0  0  0  0
    6.7659   -7.4957   17.7744 C   0  0  0  0  0  0  0  0  0  0  0  0
    8.5627   -5.9272   18.2341 N   0  0  0  0  0  0  0  0  0  0  0  0
    9.9546   -4.6946   19.6719 C   0  0  0  0  0  0  0  0  0  0  0  0
    0.5124  -11.4073   19.9155 C   0  0  0  0  0  0  0  0  0  0  0  0
    2.8976  -10.2277   17.8158 C   0  0  0  0  0  0  0  0  0  0  0  0
    9.9300   -4.1467   17.3378 C   0  0  0  0  0  0  0  0  0  0  0  0
    9.4668   -4.9709   18.4122 C   0  0  0  0  0  0  0  0  0  0  0  0
    6.6153   -6.4645   15.3053 C   0  0  0  0  0  0  0  0  0  0  0  0
    5.7481   -7.9410   16.9766 C   0  0  0  0  0  0  0  0  0  0  0  0
    7.6456   -6.4794   17.4119 C   0  0  0  0  0  0  0  0  0  0  0  0
    3.8677  -10.6557   18.6056 N   0  0  0  0  0  0  0  0  0  0  0  0
   11.0861   -3.3250   21.2872 C   0  0  0  0  0  0  0  0  0  0  0  0
    1.1727  -11.7766   21.0753 C   0  0  0  0  0  0  0  0  0  0  0  0
    4.7249   -8.9418   17.4025 C   0  0  0  0  0  0  0  0  0  0  0  0
   -1.2547  -10.4625   21.1979 C   0  0  0  0  0  0  0  0  0  0  0  0
    3.3881   -9.2045   17.0360 N   0  0  0  0  0  0  0  0  0  0  0  0
    9.4242   -4.2956   16.0470 C   0  0  0  0  0  0  0  0  0  0  0  0
   11.2648   -2.8297   18.9008 C   0  0  0  0  0  0  0  0  0  0  0  0
    1.3433   -9.1708   16.0158 C   0  0  0  0  0  0  0  0  0  0  0  0
   -0.5872  -10.8042   22.3493 C   0  0  0  0  0  0  0  0  0  0  0  0
    7.5856   -5.9742   16.0946 C   0  0  0  0  0  0  0  0  0  0  0  0
   -0.7015  -10.7886   20.0119 C   0  0  0  0  0  0  0  0  0  0  0  0
    1.0538  -11.7368   18.5715 C   0  0  0  0  0  0  0  0  0  0  0  0
    2.6014   -8.6568   16.1486 C   0  0  0  0  0  0  0  0  0  0  0  0
   10.7676   -3.6357   19.9445 C   0  0  0  0  0  0  0  0  0  0  0  0
    1.5712  -10.6951   17.7423 C   0  0  0  0  0  0  0  0  0  0  0  0
    5.7206   -7.3750   15.7429 C   0  0  0  0  0  0  0  0  0  0  0  0
  1 19  2  0
  2 24  4  0
  2 28  4  0
  3 19  1  0
  4 26  4  0
  4 33  4  0
  5 20  4  0
  5 27  4  0
  6 18  4  0
  6 21  4  0
  7 13  4  0
  7 25  4  0
  8 16  4  0
  8 17  4  0
  9 14  4  0
  9 17  4  0
 10 14  4  0
 10 32  4  0
 11 20  4  0
 11 29  4  0
 11 30  1  0
 12 18  4  0
 12 23  4  0
 12 33  4  0
 13 14  4  0
 13 24  4  0
 15 28  4  0
 15 34  4  0
 16 21  1  0
 16 34  4  0
 17 28  4  0
 19 32  1  0
 21 23  4  0
 22 27  4  0
 22 29  4  0
 23 31  4  0
 25 32  4  0
 26 31  4  0
 30 33  1  0
M  END
$$$$

 Created by Python create_sdf_string function

 34 42  0  0  0  0  0  0  0  0999 V2000
   11.7171   -2.3441   21.5486 O   0  0  0  0  0  0  0  0  0  0  0  0
    8.4425   -5.0085   15.5817 C   0  0  0  0  0  0  0  0  0  0  0  0
   10.6632   -4.1192   22.2436 O   0  0  0  0  0  0  0  0  0  0  0  0
    0.8226  -10.1529   16.7546 N   0  0  0  0  0  0  0  0  0  0  0  0
    0.6308  -11.4711   22.3742 C   0  0  0  0  0  0  0  0  0  0  0  0
    4.9532   -9.9197   18.3355 C   0  0  0  0  0  0  0  0  0  0  0  0
   10.8800   -3.1569   17.5882 C   0  0  0  0  0  0  0  0  0  0  0  0
    6.7460   -7.5108   17.7684 C   0  0  0  0  0  0  0  0  0  0  0  0
    8.5321   -5.9327   18.1931 N   0  0  0  0  0  0  0  0  0  0  0  0
    9.9862   -4.7275   19.6806 C   0  0  0  0  0  0  0  0  0  0  0  0
    0.4949  -11.4155   19.8963 C   0  0  0  0  0  0  0  0  0  0  0  0
    2.8743  -10.2319   17.7964 C   0  0  0  0  0  0  0  0  0  0  0  0
    9.9438   -4.1563   17.3596 C   0  0  0  0  0  0  0  0  0  0  0  0
    9.4948   -4.9392   18.4499 C   0  0  0  0  0  0  0  0  0  0  0  0
    6.6309   -6.4470   15.2908 C   0  0  0  0  0  0  0  0  0  0  0  0
    5.7612   -7.9215   16.9829 C   0  0  0  0  0  0  0  0  0  0  0  0
    7.6180   -6.4669   17.4150 C   0  0  0  0  0  0  0  0  0  0  0  0
    3.8365  -10.6432   18.6037 N   0  0  0  0  0  0  0  0  0  0  0  0
   11.0984   -3.3305   21.2553 C   0  0  0  0  0  0  0  0  0  0  0  0
    1.1747  -11.7592   21.0618 C   0  0  0  0  0  0  0  0  0  0  0  0
    4.6894   -8.9130   17.3950 C   0  0  0  0  0  0  0  0  0  0  0  0
   -1.2566  -10.4039   21.2139 C   0  0  0  0  0  0  0  0  0  0  0  0
    3.3752   -9.2015   17.0392 N   0  0  0  0  0  0  0  0  0  0  0  0
    9.4183   -4.2797   16.0571 C   0  0  0  0  0  0  0  0  0  0  0  0
   11.2671   -2.8434   18.8976 C   0  0  0  0  0  0  0  0  0  0  0  0
    1.3199   -9.1562   16.0249 C   0  0  0  0  0  0  0  0  0  0  0  0
   -0.5583  -10.8391   22.3714 C   0  0  0  0  0  0  0  0  0  0  0  0
    7.6125   -6.0268   16.0921 C   0  0  0  0  0  0  0  0  0  0  0  0
   -0.7231  -10.7658   19.9719 C   0  0  0  0  0  0  0  0  0  0  0  0
    1.0777  -11.7847   18.5329 C   0  0  0  0  0  0  0  0  0  0  0  0
    2.6010   -8.6536   16.1575 C   0  0  0  0  0  0  0  0  0  0  0  0
   10.7690   -3.6096   19.9339 C   0  0  0  0  0  0  0  0  0  0  0  0
    1.5843  -10.7370   17.7572 C   0  0  0  0  0  0  0  0  0  0  0  0
    5.7022   -7.3990   15.7061 C   0  0  0  0  0  0  0  0  0  0  0  0
  2 24  4  0
  2 28  4  0
  3 19  1  0
  4 26  4  0
  4 33  4  0
  5 20  4  0
  5 27  4  0
  6 18  4  0
  6 21  4  0
  7 13  4  0
  7 25  4  0
  8 16  4  0
  8 17  4  0
  9 14  2  0
  9 17  4  0
  9 22  3  0
 10 14  4  0
 10 32  4  0
 11 20  4  0
 11 29  4  0
 11 30  1  0
 12 18  4  0
 12 23  4  0
 12 33  4  0
 13 14  4  0
 13 24  4  0
 13 32  2  0
 14 25  2  0
 14 31  3  0
 15 28  4  0
 15 34  4  0
 16 21  1  0
 16 34  4  0
 17 28  4  0
 19 32  1  0
 21 23  4  0
 22 27  4  0
 22 29  4  0
 23 31  4  0
 25 32  4  0
 26 31  4  0
 30 33  1  0
M  END
$$$$

 Created by Python create_sdf_string function

 34 39  0  0  0  0  0  0  0  0999 V2000
   11.7188   -2.3622   21.5311 O   0  0  0  0  0  0  0  0  0  0  0  0
    8.4677   -5.0152   15.5889 C   0  0  0  0  0  0  0  0  0  0  0  0
   10.6675   -4.1140   22.2001 O   0  0  0  0  0  0  0  0  0  0  0  0
    0.8386  -10.1593   16.7750 N   0  0  0  0  0  0  0  0  0  0  0  0
    0.6538  -11.4980   22.3384 C   0  0  0  0  0  0  0  0  0  0  0  0
    4.9362   -9.8817   18.3391 C   0  0  0  0  0  0  0  0  0  0  0  0
   10.8731   -3.1513   17.5935 C   0  0  0  0  0  0  0  0  0  0  0  0
    6.7430   -7.4855   17.7678 C   0  0  0  0  0  0  0  0  0  0  0  0
    8.5746   -5.9132   18.2151 N   0  0  0  0  0  0  0  0  0  0  0  0
    9.9637   -4.7095   19.6867 C   0  0  0  0  0  0  0  0  0  0  0  0
    0.5074  -11.4172   19.8923 C   0  0  0  0  0  0  0  0  0  0  0  0
    2.8748  -10.2492   17.8141 C   0  0  0  0  0  0  0  0  0  0  0  0
    9.9370   -4.1280   17.3227 C   0  0  0  0  0  0  0  0  0  0  0  0
    9.4828   -4.9528   18.4114 C   0  0  0  0  0  0  0  0  0  0  0  0
    6.6217   -6.4753   15.2780 C   0  0  0  0  0  0  0  0  0  0  0  0
    5.7394   -7.9378   16.9689 C   0  0  0  0  0  0  0  0  0  0  0  0
    7.6370   -6.4852   17.3981 C   0  0  0  0  0  0  0  0  0  0  0  0
    3.8447  -10.6642   18.6138 N   0  0  0  0  0  0  0  0  0  0  0  0
   11.0960   -3.3391   21.2724 C   0  0  0  0  0  0  0  0  0  0  0  0
    1.1590  -11.7748   21.0676 C   0  0  0  0  0  0  0  0  0  0  0  0
    4.7160   -8.9427   17.4010 C   0  0  0  0  0  0  0  0  0  0  0  0
   -1.2734  -10.4307   21.2070 C   0  0  0  0  0  0  0  0  0  0  0  0
    3.3806   -9.2180   17.0385 N   0  0  0  0  0  0  0  0  0  0  0  0
    9.4195   -4.2874   16.0367 C   0  0  0  0  0  0  0  0  0  0  0  0
   11.2690   -2.8386   18.8743 C   0  0  0  0  0  0  0  0  0  0  0  0
    1.3323   -9.1606   16.0134 C   0  0  0  0  0  0  0  0  0  0  0  0
   -0.5895  -10.8194   22.3820 C   0  0  0  0  0  0  0  0  0  0  0  0
    7.5875   -5.9814   16.0624 C   0  0  0  0  0  0  0  0  0  0  0  0
   -0.7244  -10.7736   19.9948 C   0  0  0  0  0  0  0  0  0  0  0  0
    1.0537  -11.7747   18.5547 C   0  0  0  0  0  0  0  0  0  0  0  0
    2.6037   -8.6626   16.1489 C   0  0  0  0  0  0  0  0  0  0  0  0
   10.7829   -3.6305   19.9237 C   0  0  0  0  0  0  0  0  0  0  0  0
    1.5686  -10.7310   17.7416 C   0  0  0  0  0  0  0  0  0  0  0  0
    5.7037   -7.3940   15.7109 C   0  0  0  0  0  0  0  0  0  0  0  0
  1 19  2  0
  2 24  4  0
  2 28  4  0
  3 19  1  0
  4 26  4  0
  4 33  4  0
  5 20  4  0
  5 27  4  0
  6 18  4  0
  6 21  4  0
  7 13  4  0
  7 25  4  0
  8 16  4  0
  8 17  4  0
  9 14  4  0
  9 17  4  0
 10 14  4  0
 10 32  4  0
 11 20  4  0
 11 29  4  0
 11 30  1  0
 12 18  4  0
 12 23  4  0
 12 33  4  0
 13 14  4  0
 13 24  4  0
 15 28  4  0
 15 34  4  0
 16 21  1  0
 16 34  4  0
 17 28  4  0
 19 32  1  0
 21 23  4  0
 22 27  4  0
 22 29  4  0
 23 31  4  0
 25 32  4  0
 26 31  4  0
 30 33  1  0
M  END
$$$$

 Created by Python create_sdf_string function

 34 42  0  0  0  0  0  0  0  0999 V2000
   11.7369   -2.3935   21.5253 O   0  0  0  0  0  0  0  0  0  0  0  0
    8.4502   -5.0100   15.5925 C   0  0  0  0  0  0  0  0  0  0  0  0
   10.6510   -4.1173   22.1932 O   0  0  0  0  0  0  0  0  0  0  0  0
    0.8297  -10.1373   16.7831 N   0  0  0  0  0  0  0  0  0  0  0  0
    0.6365  -11.5106   22.3408 C   0  0  0  0  0  0  0  0  0  0  0  0
    4.9385   -9.8981   18.3554 C   0  0  0  0  0  0  0  0  0  0  0  0
   10.8892   -3.1726   17.5926 C   0  0  0  0  0  0  0  0  0  0  0  0
    6.7320   -7.4504   17.7473 C   0  0  0  0  0  0  0  0  0  0  0  0
    8.5634   -5.9450   18.2207 N   0  0  0  0  0  0  0  0  0  0  0  0
    9.9544   -4.7249   19.7008 C   0  0  0  0  0  0  0  0  0  0  0  0
    0.5355  -11.4133   19.9065 C   0  0  0  0  0  0  0  0  0  0  0  0
    2.8960  -10.2621   17.8247 C   0  0  0  0  0  0  0  0  0  0  0  0
    9.9200   -4.1352   17.3603 C   0  0  0  0  0  0  0  0  0  0  0  0
    9.4845   -4.9415   18.4293 C   0  0  0  0  0  0  0  0  0  0  0  0
    6.6223   -6.4766   15.2746 C   0  0  0  0  0  0  0  0  0  0  0  0
    5.7300   -7.9319   16.9428 C   0  0  0  0  0  0  0  0  0  0  0  0
    7.6108   -6.5318   17.3630 F   0  0  0  0  0  0  0  0  0  0  0  0
    3.8244  -10.6647   18.6323 N   0  0  0  0  0  0  0  0  0  0  0  0
   11.0885   -3.3295   21.2527 C   0  0  0  0  0  0  0  0  0  0  0  0
    1.1577  -11.7487   21.0370 C   0  0  0  0  0  0  0  0  0  0  0  0
    4.6898   -8.9489   17.4234 C   0  0  0  0  0  0  0  0  0  0  0  0
   -1.2911  -10.4391   21.1948 C   0  0  0  0  0  0  0  0  0  0  0  0
    3.3633   -9.2137   17.0230 N   0  0  0  0  0  0  0  0  0  0  0  0
    9.4310   -4.2810   16.0571 C   0  0  0  0  0  0  0  0  0  0  0  0
   11.2451   -2.8282   18.8963 C   0  0  0  0  0  0  0  0  0  0  0  0
    1.3102   -9.1517   16.0430 C   0  0  0  0  0  0  0  0  0  0  0  0
   -0.5776  -10.8278   22.3759 C   0  0  0  0  0  0  0  0  0  0  0  0
    7.5952   -5.9605   16.0658 C   0  0  0  0  0  0  0  0  0  0  0  0
   -0.7233  -10.8033   19.9889 C   0  0  0  0  0  0  0  0  0  0  0  0
    1.0410  -11.7523   18.5819 C   0  0  0  0  0  0  0  0  0  0  0  0
    2.5942   -8.6781   16.1426 C   0  0  0  0  0  0  0  0  0  0  0  0
   10.7610   -3.6633   19.9175 C   0  0  0  0  0  0  0  0  0  0  0  0
    1.5486  -10.7240   17.7664 C   0  0  0  0  0  0  0  0  0  0  0  0
    5.7063   -7.3958   15.7389 C   0  0  0  0  0  0  0  0  0  0  0  0
  1 19  2  0
  2 24  4  0
  2 28  4  0
  3  8  4  0
  3 19  1  0
  4 26  4  0
  4 33  4  0
  5 20  4  0
  5 27  4  0
  6 18  4  0
  6 21  4  0
  7 13  4  0
  7 25  4  0
  8 16  4  0
  8 17  4  0
  9 14  4  0
  9 17  4  0
 10 14  4  0
 10 32  4  0
 11 20  4  0
 11 26  2  0
 11 29  4  0
 11 30  1  0
 12 18  4  0
 12 23  4  0
 12 33  4  0
 13 14  4  0
 13 24  4  0
 15 28  4  0
 15 34  4  0
 16 21  1  0
 16 34  4  0
 17 28  4  0
 19 27  2  0
 19 32  1  0
 21 23  4  0
 22 27  4  0
 22 29  4  0
 23 31  4  0
 25 32  4  0
 26 31  4  0
 30 33  1  0
M  END
$$$$

 Created by Python create_sdf_string function

 34 39  0  0  0  0  0  0  0  0999 V2000
   11.7481   -2.3907   21.5139 O   0  0  0  0  0  0  0  0  0  0  0  0
    8.4658   -5.0089   15.5941 C   0  0  0  0  0  0  0  0  0  0  0  0
   10.6476   -4.1264   22.1810 O   0  0  0  0  0  0  0  0  0  0  0  0
    0.8317  -10.1543   16.7987 N   0  0  0  0  0  0  0  0  0  0  0  0
    0.6485  -11.5191   22.3261 C   0  0  0  0  0  0  0  0  0  0  0  0
    4.9270   -9.8836   18.3658 C   0  0  0  0  0  0  0  0  0  0  0  0
   10.8741   -3.1541   17.6006 C   0  0  0  0  0  0  0  0  0  0  0  0
    6.7305   -7.4713   17.7452 C   0  0  0  0  0  0  0  0  0  0  0  0
    8.5650   -5.9459   18.2104 N   0  0  0  0  0  0  0  0  0  0  0  0
    9.9430   -4.7179   19.6869 C   0  0  0  0  0  0  0  0  0  0  0  0
    0.4966  -11.4215   19.9101 C   0  0  0  0  0  0  0  0  0  0  0  0
    2.8712  -10.2612   17.8279 C   0  0  0  0  0  0  0  0  0  0  0  0
    9.9331   -4.1287   17.3255 C   0  0  0  0  0  0  0  0  0  0  0  0
    9.4853   -4.9572   18.4207 C   0  0  0  0  0  0  0  0  0  0  0  0
    6.6171   -6.4779   15.2675 C   0  0  0  0  0  0  0  0  0  0  0  0
    5.7264   -7.9379   16.9626 C   0  0  0  0  0  0  0  0  0  0  0  0
    7.6185   -6.4976   17.3627 C   0  0  0  0  0  0  0  0  0  0  0  0
    3.8334  -10.6767   18.6381 N   0  0  0  0  0  0  0  0  0  0  0  0
   11.0915   -3.3484   21.2478 C   0  0  0  0  0  0  0  0  0  0  0  0
    1.1565  -11.7699   21.0647 C   0  0  0  0  0  0  0  0  0  0  0  0
    4.7035   -8.9637   17.4117 C   0  0  0  0  0  0  0  0  0  0  0  0
   -1.2901  -10.4666   21.2011 C   0  0  0  0  0  0  0  0  0  0  0  0
    3.3756   -9.2402   17.0414 N   0  0  0  0  0  0  0  0  0  0  0  0
    9.4215   -4.2786   16.0373 C   0  0  0  0  0  0  0  0  0  0  0  0
   11.2571   -2.8292   18.8793 C   0  0  0  0  0  0  0  0  0  0  0  0
    1.3306   -9.1598   16.0278 C   0  0  0  0  0  0  0  0  0  0  0  0
   -0.5909  -10.8305   22.3869 C   0  0  0  0  0  0  0  0  0  0  0  0
    7.5835   -5.9771   16.0466 C   0  0  0  0  0  0  0  0  0  0  0  0
   -0.7279  -10.8049   19.9906 C   0  0  0  0  0  0  0  0  0  0  0  0
    1.0438  -11.7492   18.5815 C   0  0  0  0  0  0  0  0  0  0  0  0
    2.6113   -8.6867   16.1458 C   0  0  0  0  0  0  0  0  0  0  0  0
   10.7710   -3.6413   19.9130 C   0  0  0  0  0  0  0  0  0  0  0  0
    1.5575  -10.7257   17.7555 C   0  0  0  0  0  0  0  0  0  0  0  0
    5.7027   -7.3906   15.7124 C   0  0  0  0  0  0  0  0  0  0  0  0
  1 19  2  0
  2 24  4  0
  2 28  4  0
  3 19  1  0
  4 26  4  0
  4 33  4  0
  5 20  4  0
  5 27  4  0
  6 18  4  0
  6 21  4  0
  7 13  4  0
  7 25  4  0
  8 16  4  0
  8 17  4  0
  9 14  4  0
  9 17  4  0
 10 14  4  0
 10 32  4  0
 11 20  4  0
 11 29  4  0
 11 30  1  0
 12 18  4  0
 12 23  4  0
 12 33  4  0
 13 14  4  0
 13 24  4  0
 15 28  4  0
 15 34  4  0
 16 21  1  0
 16 34  4  0
 17 28  4  0
 19 32  1  0
 21 23  4  0
 22 27  4  0
 22 29  4  0
 23 31  4  0
 25 32  4  0
 26 31  4  0
 30 33  1  0
M  END
$$$$

 Created by Python create_sdf_string function

 34 43  0  0  0  0  0  0  0  0999 V2000
   11.7455   -2.4050   21.5275 O   0  0  0  0  0  0  0  0  0  0  0  0
    8.4676   -5.0024   15.5701 C   0  0  0  0  0  0  0  0  0  0  0  0
   10.6512   -4.1194   22.1799 O   0  0  0  0  0  0  0  0  0  0  0  0
    0.8420  -10.1563   16.7822 N   0  0  0  0  0  0  0  0  0  0  0  0
    0.6569  -11.5427   22.3173 C   0  0  0  0  0  0  0  0  0  0  0  0
    4.9298   -9.8942   18.3738 C   0  0  0  0  0  0  0  0  0  0  0  0
   10.8705   -3.1687   17.5994 C   0  0  0  0  0  0  0  0  0  0  0  0
    6.7327   -7.4616   17.7366 C   0  0  0  0  0  0  0  0  0  0  0  0
    8.5755   -5.9582   18.2036 N   0  0  0  0  0  0  0  0  0  0  0  0
    9.9516   -4.7053   19.6712 C   0  0  0  0  0  0  0  0  0  0  0  0
    0.4984  -11.4145   19.9343 C   0  0  0  0  0  0  0  0  0  0  0  0
    2.8763  -10.2597   17.8378 C   0  0  0  0  0  0  0  0  0  0  0  0
    9.9365   -4.1165   17.3328 C   0  0  0  0  0  0  0  0  0  0  0  0
    9.4835   -4.9657   18.4230 C   0  0  0  0  0  0  0  0  0  0  0  0
    6.6196   -6.4943   15.2682 C   0  0  0  0  0  0  0  0  0  0  0  0
    5.7192   -7.9107   16.9664 C   0  0  0  0  0  0  0  0  0  0  0  0
    7.5996   -6.5155   17.3476 C   0  0  0  0  0  0  0  0  0  0  0  0
    3.8095  -10.6789   18.6323 N   0  0  0  0  0  0  0  0  0  0  0  0
   11.1067   -3.3262   21.2307 C   0  0  0  0  0  0  0  0  0  0  0  0
    1.1414  -11.8024   21.0821 C   0  0  0  0  0  0  0  0  0  0  0  0
    4.7221   -8.9750   17.4256 C   0  0  0  0  0  0  0  0  0  0  0  0
   -1.2850  -10.4523   21.2162 C   0  0  0  0  0  0  0  0  0  0  0  0
    3.3823   -9.2601   17.0167 N   0  0  0  0  0  0  0  0  0  0  0  0
    9.4285   -4.2293   16.0268 C   0  0  0  0  0  0  0  0  0  0  0  0
   11.2577   -2.8444   18.8741 C   0  0  0  0  0  0  0  0  0  0  0  0
    1.3371   -9.1604   16.0661 C   0  0  0  0  0  0  0  0  0  0  0  0
   -0.5894  -10.8313   22.3883 C   0  0  0  0  0  0  0  0  0  0  0  0
    7.5929   -5.9780   16.0480 C   0  0  0  0  0  0  0  0  0  0  0  0
   -0.7303  -10.8123   19.9878 C   0  0  0  0  0  0  0  0  0  0  0  0
    1.0421  -11.7451   18.5840 C   0  0  0  0  0  0  0  0  0  0  0  0
    2.6102   -8.6897   16.1486 C   0  0  0  0  0  0  0  0  0  0  0  0
   10.7526   -3.6529   19.9390 C   0  0  0  0  0  0  0  0  0  0  0  0
    1.6018  -10.7364   17.7529 C   0  0  0  0  0  0  0  0  0  0  0  0
    5.7064   -7.3899   15.7197 C   0  0  0  0  0  0  0  0  0  0  0  0
  1 19  2  0
  2 24  4  0
  2 28  4  0
  3 19  1  0
  3 25  2  0
  4 26  4  0
  4 33  4  0
  5 20  4  0
  5 27  4  0
  6 18  4  0
  6 21  4  0
  7 13  4  0
  7 23  1  0
  7 25  4  0
  8 16  4  0
  8 17  4  0
  9 14  4  0
  9 17  4  0
 10 14  4  0
 10 32  4  0
 11 20  4  0
 11 28  4  0
 11 29  4  0
 11 30  1  0
 12 18  4  0
 12 23  2  0
 12 33  4  0
 13 14  4  0
 13 24  4  0
 13 32  4  0
 15 28  4  0
 15 34  4  0
 16 21  1  0
 16 34  4  0
 17 28  4  0
 19 32  1  0
 21 23  4  0
 22 27  4  0
 22 29  4  0
 23 31  4  0
 25 32  4  0
 26 31  4  0
 30 33  1  0
M  END
$$$$

 Created by Python create_sdf_string function

 34 39  0  0  0  0  0  0  0  0999 V2000
   11.7566   -2.4050   21.5204 O   0  0  0  0  0  0  0  0  0  0  0  0
    8.4607   -5.0094   15.5658 C   0  0  0  0  0  0  0  0  0  0  0  0
   10.6470   -4.1295   22.1713 O   0  0  0  0  0  0  0  0  0  0  0  0
    0.8477  -10.1633   16.7991 N   0  0  0  0  0  0  0  0  0  0  0  0
    0.6485  -11.5463   22.3304 C   0  0  0  0  0  0  0  0  0  0  0  0
    4.9335   -9.8911   18.3868 C   0  0  0  0  0  0  0  0  0  0  0  0
   10.8604   -3.1524   17.5940 C   0  0  0  0  0  0  0  0  0  0  0  0
    6.7293   -7.4713   17.7423 C   0  0  0  0  0  0  0  0  0  0  0  0
    8.5737   -5.9476   18.1956 N   0  0  0  0  0  0  0  0  0  0  0  0
    9.9392   -4.7107   19.6740 C   0  0  0  0  0  0  0  0  0  0  0  0
    0.4941  -11.4353   19.9167 C   0  0  0  0  0  0  0  0  0  0  0  0
    2.8761  -10.2749   17.8355 C   0  0  0  0  0  0  0  0  0  0  0  0
    9.9195   -4.1262   17.3147 C   0  0  0  0  0  0  0  0  0  0  0  0
    9.4732   -4.9577   18.3885 C   0  0  0  0  0  0  0  0  0  0  0  0
    6.6090   -6.4931   15.2590 C   0  0  0  0  0  0  0  0  0  0  0  0
    5.7220   -7.9437   16.9606 C   0  0  0  0  0  0  0  0  0  0  0  0
    7.6300   -6.4893   17.3599 C   0  0  0  0  0  0  0  0  0  0  0  0
    3.8355  -10.6877   18.6525 N   0  0  0  0  0  0  0  0  0  0  0  0
   11.0958   -3.3537   21.2438 C   0  0  0  0  0  0  0  0  0  0  0  0
    1.1374  -11.8091   21.0654 C   0  0  0  0  0  0  0  0  0  0  0  0
    4.7218   -8.9710   17.4201 C   0  0  0  0  0  0  0  0  0  0  0  0
   -1.2899  -10.4760   21.2177 C   0  0  0  0  0  0  0  0  0  0  0  0
    3.3978   -9.2453   17.0426 N   0  0  0  0  0  0  0  0  0  0  0  0
    9.4173   -4.2518   16.0186 C   0  0  0  0  0  0  0  0  0  0  0  0
   11.2646   -2.8415   18.8685 C   0  0  0  0  0  0  0  0  0  0  0  0
    1.3523   -9.1689   16.0372 C   0  0  0  0  0  0  0  0  0  0  0  0
   -0.5913  -10.8404   22.4024 C   0  0  0  0  0  0  0  0  0  0  0  0
    7.5851   -5.9758   16.0249 C   0  0  0  0  0  0  0  0  0  0  0  0
   -0.7296  -10.8129   20.0078 C   0  0  0  0  0  0  0  0  0  0  0  0
    1.0456  -11.7543   18.5808 C   0  0  0  0  0  0  0  0  0  0  0  0
    2.6318   -8.6992   16.1464 C   0  0  0  0  0  0  0  0  0  0  0  0
   10.7753   -3.6375   19.9123 C   0  0  0  0  0  0  0  0  0  0  0  0
    1.5734  -10.7353   17.7576 C   0  0  0  0  0  0  0  0  0  0  0  0
    5.6897   -7.3945   15.7090 C   0  0  0  0  0  0  0  0  0  0  0  0
  1 19  2  0
  2 24  4  0
  2 28  4  0
  3 19  1  0
  4 26  4  0
  4 33  4  0
  5 20  4  0
  5 27  4  0
  6 18  4  0
  6 21  4  0
  7 13  4  0
  7 25  4  0
  8 16  4  0
  8 17  4  0
  9 14  4  0
  9 17  4  0
 10 14  4  0
 10 32  4  0
 11 20  4  0
 11 29  4  0
 11 30  1  0
 12 18  4  0
 12 23  4  0
 12 33  4  0
 13 14  4  0
 13 24  4  0
 15 28  4  0
 15 34  4  0
 16 21  1  0
 16 34  4  0
 17 28  4  0
 19 32  1  0
 21 23  4  0
 22 27  4  0
 22 29  4  0
 23 31  4  0
 25 32  4  0
 26 31  4  0
 30 33  1  0
M  END
$$$$

 Created by Python create_sdf_string function

 34 42  0  0  0  0  0  0  0  0999 V2000
   11.7592   -2.4038   21.5321 O   0  0  0  0  0  0  0  0  0  0  0  0
    8.4627   -5.0067   15.5628 C   0  0  0  0  0  0  0  0  0  0  0  0
   10.6485   -4.1144   22.1726 O   0  0  0  0  0  0  0  0  0  0  0  0
    0.8455  -10.1592   16.8040 N   0  0  0  0  0  0  0  0  0  0  0  0
    0.6358  -11.5399   22.3389 C   0  0  0  0  0  0  0  0  0  0  0  0
    4.9227   -9.8799   18.3634 C   0  0  0  0  0  0  0  0  0  0  0  0
   10.8271   -3.1639   17.6176 C   0  0  0  0  0  0  0  0  0  0  0  0
    6.7342   -7.4800   17.7359 C   0  0  0  0  0  0  0  0  0  0  0  0
    8.5965   -5.9403   18.1939 N   0  0  0  0  0  0  0  0  0  0  0  0
    9.9471   -4.7280   19.6738 C   0  0  0  0  0  0  0  0  0  0  0  0
    0.4921  -11.4514   19.9417 C   0  0  0  0  0  0  0  0  0  0  0  0
    2.8884  -10.2784   17.8533 C   0  0  0  0  0  0  0  0  0  0  0  0
    9.9293   -4.1269   17.3254 C   0  0  0  0  0  0  0  0  0  0  0  0
    9.4637   -4.9656   18.3876 C   0  0  0  0  0  0  0  0  0  0  0  0
    6.6095   -6.5014   15.2672 C   0  0  0  0  0  0  0  0  0  0  0  0
    5.7177   -7.9402   16.9663 C   0  0  0  0  0  0  0  0  0  0  0  0
    7.6360   -6.5005   17.3781 C   0  0  0  0  0  0  0  0  0  0  0  0
    3.8261  -10.6759   18.6435 N   0  0  0  0  0  0  0  0  0  0  0  0
   11.0709   -3.3709   21.2499 C   0  0  0  0  0  0  0  0  0  0  0  0
    1.1440  -11.7800   21.0484 C   0  0  0  0  0  0  0  0  0  0  0  0
    4.7258   -8.9736   17.4374 C   0  0  0  0  0  0  0  0  0  0  0  0
   -1.2955  -10.4432   21.2273 C   0  0  0  0  0  0  0  0  0  0  0  0
    3.4175   -9.2504   17.0458 N   0  0  0  0  0  0  0  0  0  0  0  0
    9.4076   -4.2571   16.0055 C   0  0  0  0  0  0  0  0  0  0  0  0
   11.2666   -2.8340   18.8613 C   0  0  0  0  0  0  0  0  0  0  0  0
    1.3601   -9.1737   16.0396 C   0  0  0  0  0  0  0  0  0  0  0  0
   -0.5971  -10.8560   22.3967 C   0  0  0  0  0  0  0  0  0  0  0  0
    7.5762   -5.9659   16.0187 C   0  0  0  0  0  0  0  0  0  0  0  0
   -0.7449  -10.8154   20.0375 C   0  0  0  0  0  0  0  0  0  0  0  0
    1.0549  -11.7429   18.5857 C   0  0  0  0  0  0  0  0  0  0  0  0
    2.6326   -8.7061   16.1521 C   0  0  0  0  0  0  0  0  0  0  0  0
   10.7733   -3.6443   19.9263 C   0  0  0  0  0  0  0  0  0  0  0  0
    1.5872  -10.7401   17.7634 C   0  0  0  0  0  0  0  0  0  0  0  0
    5.7024   -7.3911   15.7097 C   0  0  0  0  0  0  0  0  0  0  0  0
  1 19  2  0
  2 24  4  0
  2 28  4  0
  3 19  1  0
  4 26  4  0
  4 33  4  0
  5 20  4  0
  5 27  4  0
  6 18  4  0
  6 21  4  0
  7 13  4  0
  7 25  4  0
  8 16  4  0
  8 17  4  0
  9 14  4  0
  9 17  4  0
 10 14  4  0
 10 32  4  0
 11 20  4  0
 11 29  4  0
 11 30  1  0
 12 16  3  0
 12 18  4  0
 12 23  4  0
 12 33  4  0
 13 14  4  0
 13 24  4  0
 15 28  4  0
 15 34  4  0
 16 21  1  0
 16 34  4  0
 17 28  4  0
 19 32  1  0
 21 23  4  0
 22 27  4  0
 22 29  4  0
 23 31  4  0
 25 32  4  0
 26 31  4  0
 30 31  1  0
 30 33  1  0
 31 32  3  0
M  END
$$$$

 Created by Python create_sdf_string function

 34 39  0  0  0  0  0  0  0  0999 V2000
   11.7657   -2.4067   21.5150 O   0  0  0  0  0  0  0  0  0  0  0  0
    8.4548   -5.0124   15.5591 C   0  0  0  0  0  0  0  0  0  0  0  0
   10.6400   -4.1302   22.1595 O   0  0  0  0  0  0  0  0  0  0  0  0
    0.8531  -10.1680   16.8110 N   0  0  0  0  0  0  0  0  0  0  0  0
    0.6433  -11.5515   22.3413 C   0  0  0  0  0  0  0  0  0  0  0  0
    4.9379   -9.8840   18.3932 C   0  0  0  0  0  0  0  0  0  0  0  0
   10.8349   -3.1493   17.5986 C   0  0  0  0  0  0  0  0  0  0  0  0
    6.7387   -7.4787   17.7388 C   0  0  0  0  0  0  0  0  0  0  0  0
    8.5849   -5.9397   18.1872 N   0  0  0  0  0  0  0  0  0  0  0  0
    9.9410   -4.7203   19.6583 C   0  0  0  0  0  0  0  0  0  0  0  0
    0.4818  -11.4347   19.9269 C   0  0  0  0  0  0  0  0  0  0  0  0
    2.8882  -10.2703   17.8421 C   0  0  0  0  0  0  0  0  0  0  0  0
    9.9104   -4.1277   17.3076 C   0  0  0  0  0  0  0  0  0  0  0  0
    9.4691   -4.9691   18.3831 C   0  0  0  0  0  0  0  0  0  0  0  0
    6.6005   -6.4974   15.2606 C   0  0  0  0  0  0  0  0  0  0  0  0
    5.7244   -7.9527   16.9594 C   0  0  0  0  0  0  0  0  0  0  0  0
    7.6449   -6.4806   17.3594 C   0  0  0  0  0  0  0  0  0  0  0  0
    3.8454  -10.6842   18.6643 N   0  0  0  0  0  0  0  0  0  0  0  0
   11.0929   -3.3594   21.2356 C   0  0  0  0  0  0  0  0  0  0  0  0
    1.1317  -11.7926   21.0788 C   0  0  0  0  0  0  0  0  0  0  0  0
    4.7248   -8.9755   17.4268 C   0  0  0  0  0  0  0  0  0  0  0  0
   -1.3004  -10.4726   21.2357 C   0  0  0  0  0  0  0  0  0  0  0  0
    3.4073   -9.2588   17.0544 N   0  0  0  0  0  0  0  0  0  0  0  0
    9.4076   -4.2654   16.0121 C   0  0  0  0  0  0  0  0  0  0  0  0
   11.2620   -2.8326   18.8612 C   0  0  0  0  0  0  0  0  0  0  0  0
    1.3567   -9.1908   16.0259 C   0  0  0  0  0  0  0  0  0  0  0  0
   -0.5982  -10.8602   22.4143 C   0  0  0  0  0  0  0  0  0  0  0  0
    7.5787   -5.9814   16.0311 C   0  0  0  0  0  0  0  0  0  0  0  0
   -0.7405  -10.8193   20.0339 C   0  0  0  0  0  0  0  0  0  0  0  0
    1.0363  -11.7413   18.5965 C   0  0  0  0  0  0  0  0  0  0  0  0
    2.6401   -8.7231   16.1533 C   0  0  0  0  0  0  0  0  0  0  0  0
   10.7724   -3.6447   19.9002 C   0  0  0  0  0  0  0  0  0  0  0  0
    1.5757  -10.7353   17.7733 C   0  0  0  0  0  0  0  0  0  0  0  0
    5.6870   -7.4050   15.7056 C   0  0  0  0  0  0  0  0  0  0  0  0
  1 19  2  0
  2 24  4  0
  2 28  4  0
  3 19  1  0
  4 26  4  0
  4 33  4  0
  5 20  4  0
  5 27  4  0
  6 18  4  0
  6 21  4  0
  7 13  4  0
  7 25  4  0
  8 16  4  0
  8 17  4  0
  9 14  4  0
  9 17  4  0
 10 14  4  0
 10 32  4  0
 11 20  4  0
 11 29  4  0
 11 30  1  0
 12 18  4  0
 12 23  4  0
 12 33  4  0
 13 14  4  0
 13 24  4  0
 15 28  4  0
 15 34  4  0
 16 21  1  0
 16 34  4  0
 17 28  4  0
 19 32  1  0
 21 23  4  0
 22 27  4  0
 22 29  4  0
 23 31  4  0
 25 32  4  0
 26 31  4  0
 30 33  1  0
M  END
$$$$

 Created by Python create_sdf_string function

 34 41  0  0  0  0  0  0  0  0999 V2000
   11.7585   -2.4088   21.5185 O   0  0  0  0  0  0  0  0  0  0  0  0
    8.4586   -5.0269   15.5509 C   0  0  0  0  0  0  0  0  0  0  0  0
   10.6383   -4.1391   22.1565 O   0  0  0  0  0  0  0  0  0  0  0  0
    0.8548  -10.1786   16.8083 N   0  0  0  0  0  0  0  0  0  0  0  0
    0.6353  -11.5522   22.3510 C   0  0  0  0  0  0  0  0  0  0  0  0
    4.9378   -9.8957   18.3954 C   0  0  0  0  0  0  0  0  0  0  0  0
   10.8330   -3.1433   17.6035 C   0  0  0  0  0  0  0  0  0  0  0  0
    6.7318   -7.4881   17.7471 C   0  0  0  0  0  0  0  0  0  0  0  0
    8.5913   -5.9408   18.1865 N   0  0  0  0  0  0  0  0  0  0  0  0
    9.9497   -4.7236   19.6653 C   0  0  0  0  0  0  0  0  0  0  0  0
    0.4853  -11.4309   19.9230 C   0  0  0  0  0  0  0  0  0  0  0  0
    2.8978  -10.2666   17.8362 C   0  0  0  0  0  0  0  0  0  0  0  0
    9.9074   -4.1164   17.3167 C   0  0  0  0  0  0  0  0  0  0  0  0
    9.4667   -4.9744   18.3822 C   0  0  0  0  0  0  0  0  0  0  0  0
    6.6061   -6.4969   15.2595 C   0  0  0  0  0  0  0  0  0  0  0  0
    5.7268   -7.9566   16.9608 C   0  0  0  0  0  0  0  0  0  0  0  0
    7.6434   -6.4889   17.3634 C   0  0  0  0  0  0  0  0  0  0  0  0
    3.8461  -10.6794   18.6687 N   0  0  0  0  0  0  0  0  0  0  0  0
   11.0979   -3.3750   21.2312 C   0  0  0  0  0  0  0  0  0  0  0  0
    1.1175  -11.7909   21.0695 C   0  0  0  0  0  0  0  0  0  0  0  0
    4.7158   -8.9766   17.4186 C   0  0  0  0  0  0  0  0  0  0  0  0
   -1.3007  -10.4736   21.2270 C   0  0  0  0  0  0  0  0  0  0  0  0
    3.4060   -9.2676   17.0690 N   0  0  0  0  0  0  0  0  0  0  0  0
    9.4087   -4.2739   15.9968 C   0  0  0  0  0  0  0  0  0  0  0  0
   11.2700   -2.8110   18.8703 C   0  0  0  0  0  0  0  0  0  0  0  0
    1.3523   -9.1879   16.0225 C   0  0  0  0  0  0  0  0  0  0  0  0
   -0.5991  -10.8524   22.4216 C   0  0  0  0  0  0  0  0  0  0  0  0
    7.5827   -5.9892   16.0170 C   0  0  0  0  0  0  0  0  0  0  0  0
   -0.7315  -10.8324   20.0330 C   0  0  0  0  0  0  0  0  0  0  0  0
    1.0441  -11.7477   18.5957 C   0  0  0  0  0  0  0  0  0  0  0  0
    2.6430   -8.7326   16.1432 C   0  0  0  0  0  0  0  0  0  0  0  0
   10.7548   -3.6379   19.9053 C   0  0  0  0  0  0  0  0  0  0  0  0
    1.5760  -10.7441   17.7750 C   0  0  0  0  0  0  0  0  0  0  0  0
    5.6871   -7.4036   15.7099 C   0  0  0  0  0  0  0  0  0  0  0  0
  1 19  2  0
  2 24  4  0
  2 28  4  0
  3 19  1  0
  4 26  4  0
  4 33  4  0
  5 20  4  0
  5 27  4  0
  6 18  4  0
  6 21  4  0
  7 13  4  0
  7 25  4  0
  8 16  4  0
  8 17  4  0
  9 14  4  0
  9 17  4  0
 10 14  4  0
 10 32  4  0
 11 20  4  0
 11 29  4  0
 11 30  1  0
 12 18  4  0
 12 23  4  0
 12 33  4  0
 13 14  4  0
 13 24  4  0
 15 28  4  0
 15 34  4  0
 16 21  1  0
 16 34  4  0
 17 28  4  0
 19 32  1  0
 21 23  4  0
 22 27  4  0
 22 29  4  0
 23 24  3  0
 23 31  4  0
 24 25  2  0
 25 32  4  0
 26 31  4  0
 30 33  1  0
M  END
$$$$

 Created by Python create_sdf_string function

 34 39  0  0  0  0  0  0  0  0999 V2000
   11.7661   -2.4160   21.5058 O   0  0  0  0  0  0  0  0  0  0  0  0
    8.4605   -5.0265   15.5537 C   0  0  0  0  0  0  0  0  0  0  0  0
   10.6388   -4.1477   22.1413 O   0  0  0  0  0  0  0  0  0  0  0  0
    0.8676  -10.1771   16.8087 N   0  0  0  0  0  0  0  0  0  0  0  0
    0.6370  -11.5602   22.3487 C   0  0  0  0  0  0  0  0  0  0  0  0
    4.9355   -9.8874   18.4040 C   0  0  0  0  0  0  0  0  0  0  0  0
   10.8283   -3.1369   17.5936 C   0  0  0  0  0  0  0  0  0  0  0  0
    6.7404   -7.4898   17.7433 C   0  0  0  0  0  0  0  0  0  0  0  0
    8.5814   -5.9444   18.1835 N   0  0  0  0  0  0  0  0  0  0  0  0
    9.9391   -4.7200   19.6496 C   0  0  0  0  0  0  0  0  0  0  0  0
    0.4827  -11.4399   19.9278 C   0  0  0  0  0  0  0  0  0  0  0  0
    2.8930  -10.2796   17.8474 C   0  0  0  0  0  0  0  0  0  0  0  0
    9.9079   -4.1218   17.2970 C   0  0  0  0  0  0  0  0  0  0  0  0
    9.4668   -4.9655   18.3718 C   0  0  0  0  0  0  0  0  0  0  0  0
    6.5961   -6.5072   15.2612 C   0  0  0  0  0  0  0  0  0  0  0  0
    5.7261   -7.9616   16.9611 C   0  0  0  0  0  0  0  0  0  0  0  0
    7.6402   -6.4966   17.3604 C   0  0  0  0  0  0  0  0  0  0  0  0
    3.8498  -10.6803   18.6748 N   0  0  0  0  0  0  0  0  0  0  0  0
   11.1004   -3.3663   21.2335 C   0  0  0  0  0  0  0  0  0  0  0  0
    1.1201  -11.8056   21.0820 C   0  0  0  0  0  0  0  0  0  0  0  0
    4.7246   -8.9851   17.4280 C   0  0  0  0  0  0  0  0  0  0  0  0
   -1.3030  -10.4968   21.2429 C   0  0  0  0  0  0  0  0  0  0  0  0
    3.4075   -9.2723   17.0524 N   0  0  0  0  0  0  0  0  0  0  0  0
    9.4107   -4.2681   15.9968 C   0  0  0  0  0  0  0  0  0  0  0  0
   11.2506   -2.8269   18.8627 C   0  0  0  0  0  0  0  0  0  0  0  0
    1.3676   -9.1982   16.0127 C   0  0  0  0  0  0  0  0  0  0  0  0
   -0.6032  -10.8605   22.4324 C   0  0  0  0  0  0  0  0  0  0  0  0
    7.5792   -5.9925   16.0230 C   0  0  0  0  0  0  0  0  0  0  0  0
   -0.7366  -10.8335   20.0425 C   0  0  0  0  0  0  0  0  0  0  0  0
    1.0338  -11.7483   18.6012 C   0  0  0  0  0  0  0  0  0  0  0  0
    2.6465   -8.7404   16.1408 C   0  0  0  0  0  0  0  0  0  0  0  0
   10.7662   -3.6444   19.8959 C   0  0  0  0  0  0  0  0  0  0  0  0
    1.5809  -10.7427   17.7760 C   0  0  0  0  0  0  0  0  0  0  0  0
    5.6792   -7.4110   15.7047 C   0  0  0  0  0  0  0  0  0  0  0  0
  1 19  2  0
  2 24  4  0
  2 28  4  0
  3 19  1  0
  4 26  4  0
  4 33  4  0
  5 20  4  0
  5 27  4  0
  6 18  4  0
  6 21  4  0
  7 13  4  0
  7 25  4  0
  8 16  4  0
  8 17  4  0
  9 14  4  0
  9 17  4  0
 10 14  4  0
 10 32  4  0
 11 20  4  0
 11 29  4  0
 11 30  1  0
 12 18  4  0
 12 23  4  0
 12 33  4  0
 13 14  4  0
 13 24  4  0
 15 28  4  0
 15 34  4  0
 16 21  1  0
 16 34  4  0
 17 28  4  0
 19 32  1  0
 21 23  4  0
 22 27  4  0
 22 29  4  0
 23 31  4  0
 25 32  4  0
 26 31  4  0
 30 33  1  0
M  END
$$$$

 Created by Python create_sdf_string function

 34 39  0  0  0  0  0  0  0  0999 V2000
   11.7675   -2.4123   21.5020 O   0  0  0  0  0  0  0  0  0  0  0  0
    8.4614   -5.0244   15.5567 C   0  0  0  0  0  0  0  0  0  0  0  0
   10.6411   -4.1435   22.1481 O   0  0  0  0  0  0  0  0  0  0  0  0
    0.8696  -10.1729   16.8084 N   0  0  0  0  0  0  0  0  0  0  0  0
    0.6376  -11.5613   22.3488 C   0  0  0  0  0  0  0  0  0  0  0  0
    4.9360   -9.8871   18.4023 C   0  0  0  0  0  0  0  0  0  0  0  0
   10.8333   -3.1309   17.5938 C   0  0  0  0  0  0  0  0  0  0  0  0
    6.7442   -7.4920   17.7379 C   0  0  0  0  0  0  0  0  0  0  0  0
    8.5793   -5.9444   18.1833 N   0  0  0  0  0  0  0  0  0  0  0  0
    9.9461   -4.7168   19.6475 C   0  0  0  0  0  0  0  0  0  0  0  0
    0.4811  -11.4443   19.9249 C   0  0  0  0  0  0  0  0  0  0  0  0
    2.8947  -10.2735   17.8487 C   0  0  0  0  0  0  0  0  0  0  0  0
    9.9071   -4.1172   17.3009 C   0  0  0  0  0  0  0  0  0  0  0  0
    9.4636   -4.9661   18.3774 C   0  0  0  0  0  0  0  0  0  0  0  0
    6.6029   -6.5125   15.2583 C   0  0  0  0  0  0  0  0  0  0  0  0
    5.7332   -7.9642   16.9607 C   0  0  0  0  0  0  0  0  0  0  0  0
    7.6360   -6.4908   17.3593 C   0  0  0  0  0  0  0  0  0  0  0  0
    3.8531  -10.6819   18.6762 N   0  0  0  0  0  0  0  0  0  0  0  0
   11.0956   -3.3621   21.2370 C   0  0  0  0  0  0  0  0  0  0  0  0
    1.1132  -11.8002   21.0821 C   0  0  0  0  0  0  0  0  0  0  0  0
    4.7264   -8.9819   17.4235 C   0  0  0  0  0  0  0  0  0  0  0  0
   -1.3012  -10.4934   21.2343 C   0  0  0  0  0  0  0  0  0  0  0  0
    3.4131   -9.2688   17.0531 N   0  0  0  0  0  0  0  0  0  0  0  0
    9.4071   -4.2710   15.9951 C   0  0  0  0  0  0  0  0  0  0  0  0
   11.2542   -2.8279   18.8575 C   0  0  0  0  0  0  0  0  0  0  0  0
    1.3690   -9.1994   16.0126 C   0  0  0  0  0  0  0  0  0  0  0  0
   -0.6024  -10.8594   22.4346 C   0  0  0  0  0  0  0  0  0  0  0  0
    7.5811   -5.9922   16.0239 C   0  0  0  0  0  0  0  0  0  0  0  0
   -0.7351  -10.8383   20.0489 C   0  0  0  0  0  0  0  0  0  0  0  0
    1.0341  -11.7497   18.6034 C   0  0  0  0  0  0  0  0  0  0  0  0
    2.6488   -8.7441   16.1461 C   0  0  0  0  0  0  0  0  0  0  0  0
   10.7619   -3.6391   19.8999 C   0  0  0  0  0  0  0  0  0  0  0  0
    1.5790  -10.7474   17.7772 C   0  0  0  0  0  0  0  0  0  0  0  0
    5.6775   -7.4025   15.7045 C   0  0  0  0  0  0  0  0  0  0  0  0
  1 19  2  0
  2 24  4  0
  2 28  4  0
  3 19  1  0
  4 26  4  0
  4 33  4  0
  5 20  4  0
  5 27  4  0
  6 18  4  0
  6 21  4  0
  7 13  4  0
  7 25  4  0
  8 16  4  0
  8 17  4  0
  9 14  4  0
  9 17  4  0
 10 14  4  0
 10 32  4  0
 11 20  4  0
 11 29  4  0
 11 30  1  0
 12 18  4  0
 12 23  4  0
 12 33  4  0
 13 14  4  0
 13 24  4  0
 15 28  4  0
 15 34  4  0
 16 21  1  0
 16 34  4  0
 17 28  4  0
 19 32  1  0
 21 23  4  0
 22 27  4  0
 22 29  4  0
 23 31  4  0
 25 32  4  0
 26 31  4  0
 30 33  1  0
M  END
$$$$

 Created by Python create_sdf_string function

 34 39  0  0  0  0  0  0  0  0999 V2000
   11.7748   -2.4134   21.4869 O   0  0  0  0  0  0  0  0  0  0  0  0
    8.4571   -5.0280   15.5489 C   0  0  0  0  0  0  0  0  0  0  0  0
   10.6373   -4.1527   22.1338 O   0  0  0  0  0  0  0  0  0  0  0  0
    0.8865  -10.1736   16.8062 N   0  0  0  0  0  0  0  0  0  0  0  0
    0.6363  -11.5685   22.3514 C   0  0  0  0  0  0  0  0  0  0  0  0
    4.9382   -9.8865   18.4135 C   0  0  0  0  0  0  0  0  0  0  0  0
   10.8301   -3.1290   17.5832 C   0  0  0  0  0  0  0  0  0  0  0  0
    6.7438   -7.4973   17.7359 C   0  0  0  0  0  0  0  0  0  0  0  0
    8.5781   -5.9390   18.1797 N   0  0  0  0  0  0  0  0  0  0  0  0
    9.9427   -4.7068   19.6371 C   0  0  0  0  0  0  0  0  0  0  0  0
    0.4794  -11.4482   19.9323 C   0  0  0  0  0  0  0  0  0  0  0  0
    2.8970  -10.2853   17.8533 C   0  0  0  0  0  0  0  0  0  0  0  0
    9.9066   -4.1176   17.2835 C   0  0  0  0  0  0  0  0  0  0  0  0
    9.4685   -4.9581   18.3697 C   0  0  0  0  0  0  0  0  0  0  0  0
    6.5959   -6.5143   15.2606 C   0  0  0  0  0  0  0  0  0  0  0  0
    5.7287   -7.9676   16.9587 C   0  0  0  0  0  0  0  0  0  0  0  0
    7.6332   -6.5041   17.3535 C   0  0  0  0  0  0  0  0  0  0  0  0
    3.8550  -10.6808   18.6840 N   0  0  0  0  0  0  0  0  0  0  0  0
   11.0986   -3.3658   21.2207 C   0  0  0  0  0  0  0  0  0  0  0  0
    1.1160  -11.8135   21.0849 C   0  0  0  0  0  0  0  0  0  0  0  0
    4.7306   -8.9915   17.4326 C   0  0  0  0  0  0  0  0  0  0  0  0
   -1.3063  -10.5114   21.2530 C   0  0  0  0  0  0  0  0  0  0  0  0
    3.4124   -9.2810   17.0553 N   0  0  0  0  0  0  0  0  0  0  0  0
    9.4002   -4.2777   15.9890 C   0  0  0  0  0  0  0  0  0  0  0  0
   11.2565   -2.8190   18.8531 C   0  0  0  0  0  0  0  0  0  0  0  0
    1.3860   -9.2081   16.0076 C   0  0  0  0  0  0  0  0  0  0  0  0
   -0.6049  -10.8692   22.4441 C   0  0  0  0  0  0  0  0  0  0  0  0
    7.5780   -5.9951   16.0165 C   0  0  0  0  0  0  0  0  0  0  0  0
   -0.7359  -10.8450   20.0542 C   0  0  0  0  0  0  0  0  0  0  0  0
    1.0240  -11.7443   18.6054 C   0  0  0  0  0  0  0  0  0  0  0  0
    2.6597   -8.7525   16.1422 C   0  0  0  0  0  0  0  0  0  0  0  0
   10.7697   -3.6382   19.8893 C   0  0  0  0  0  0  0  0  0  0  0  0
    1.5848  -10.7455   17.7777 C   0  0  0  0  0  0  0  0  0  0  0  0
    5.6785   -7.4130   15.7047 C   0  0  0  0  0  0  0  0  0  0  0  0
  1 19  2  0
  2 24  4  0
  2 28  4  0
  3 19  1  0
  4 26  4  0
  4 33  4  0
  5 20  4  0
  5 27  4  0
  6 18  4  0
  6 21  4  0
  7 13  4  0
  7 25  4  0
  8 16  4  0
  8 17  4  0
  9 14  4  0
  9 17  4  0
 10 14  4  0
 10 32  4  0
 11 20  4  0
 11 29  4  0
 11 30  1  0
 12 18  4  0
 12 23  4  0
 12 33  4  0
 13 14  4  0
 13 24  4  0
 15 28  4  0
 15 34  4  0
 16 21  1  0
 16 34  4  0
 17 28  4  0
 19 32  1  0
 21 23  4  0
 22 27  4  0
 22 29  4  0
 23 31  4  0
 25 32  4  0
 26 31  4  0
 30 33  1  0
M  END
$$$$

 Created by Python create_sdf_string function

 34 39  0  0  0  0  0  0  0  0999 V2000
   11.7748   -2.4134   21.4869 O   0  0  0  0  0  0  0  0  0  0  0  0
    8.4571   -5.0280   15.5489 C   0  0  0  0  0  0  0  0  0  0  0  0
   10.6373   -4.1527   22.1338 O   0  0  0  0  0  0  0  0  0  0  0  0
    0.8865  -10.1736   16.8062 N   0  0  0  0  0  0  0  0  0  0  0  0
    0.6363  -11.5685   22.3514 C   0  0  0  0  0  0  0  0  0  0  0  0
    4.9382   -9.8865   18.4135 C   0  0  0  0  0  0  0  0  0  0  0  0
   10.8301   -3.1290   17.5832 C   0  0  0  0  0  0  0  0  0  0  0  0
    6.7438   -7.4973   17.7359 C   0  0  0  0  0  0  0  0  0  0  0  0
    8.5781   -5.9390   18.1797 N   0  0  0  0  0  0  0  0  0  0  0  0
    9.9427   -4.7068   19.6371 C   0  0  0  0  0  0  0  0  0  0  0  0
    0.4794  -11.4482   19.9323 C   0  0  0  0  0  0  0  0  0  0  0  0
    2.8970  -10.2853   17.8533 C   0  0  0  0  0  0  0  0  0  0  0  0
    9.9066   -4.1176   17.2835 C   0  0  0  0  0  0  0  0  0  0  0  0
    9.4685   -4.9581   18.3697 C   0  0  0  0  0  0  0  0  0  0  0  0
    6.5959   -6.5143   15.2606 C   0  0  0  0  0  0  0  0  0  0  0  0
    5.7287   -7.9676   16.9587 C   0  0  0  0  0  0  0  0  0  0  0  0
    7.6332   -6.5041   17.3535 C   0  0  0  0  0  0  0  0  0  0  0  0
    3.8550  -10.6808   18.6840 N   0  0  0  0  0  0  0  0  0  0  0  0
   11.0986   -3.3658   21.2207 C   0  0  0  0  0  0  0  0  0  0  0  0
    1.1160  -11.8135   21.0849 C   0  0  0  0  0  0  0  0  0  0  0  0
    4.7306   -8.9915   17.4326 C   0  0  0  0  0  0  0  0  0  0  0  0
   -1.3063  -10.5114   21.2530 C   0  0  0  0  0  0  0  0  0  0  0  0
    3.4124   -9.2810   17.0553 N   0  0  0  0  0  0  0  0  0  0  0  0
    9.4002   -4.2777   15.9890 C   0  0  0  0  0  0  0  0  0  0  0  0
   11.2565   -2.8190   18.8531 C   0  0  0  0  0  0  0  0  0  0  0  0
    1.3860   -9.2081   16.0076 C   0  0  0  0  0  0  0  0  0  0  0  0
   -0.6049  -10.8692   22.4441 C   0  0  0  0  0  0  0  0  0  0  0  0
    7.5780   -5.9951   16.0165 C   0  0  0  0  0  0  0  0  0  0  0  0
   -0.7359  -10.8450   20.0542 C   0  0  0  0  0  0  0  0  0  0  0  0
    1.0240  -11.7443   18.6054 C   0  0  0  0  0  0  0  0  0  0  0  0
    2.6597   -8.7525   16.1422 C   0  0  0  0  0  0  0  0  0  0  0  0
   10.7697   -3.6382   19.8893 C   0  0  0  0  0  0  0  0  0  0  0  0
    1.5848  -10.7455   17.7777 C   0  0  0  0  0  0  0  0  0  0  0  0
    5.6785   -7.4130   15.7047 C   0  0  0  0  0  0  0  0  0  0  0  0
  1 19  2  0
  2 24  4  0
  2 28  4  0
  3 19  1  0
  4 26  4  0
  4 33  4  0
  5 20  4  0
  5 27  4  0
  6 18  4  0
  6 21  4  0
  7 13  4  0
  7 25  4  0
  8 16  4  0
  8 17  4  0
  9 14  4  0
  9 17  4  0
 10 14  4  0
 10 32  4  0
 11 20  4  0
 11 29  4  0
 11 30  1  0
 12 18  4  0
 12 23  4  0
 12 33  4  0
 13 14  4  0
 13 24  4  0
 15 28  4  0
 15 34  4  0
 16 21  1  0
 16 34  4  0
 17 28  4  0
 19 32  1  0
 21 23  4  0
 22 27  4  0
 22 29  4  0
 23 31  4  0
 25 32  4  0
 26 31  4  0
 30 33  1  0
M  END
$$$$

 Created by Python create_sdf_string function

 34 39  0  0  0  0  0  0  0  0999 V2000
   11.7748   -2.4134   21.4869 O   0  0  0  0  0  0  0  0  0  0  0  0
    8.4571   -5.0280   15.5489 C   0  0  0  0  0  0  0  0  0  0  0  0
   10.6373   -4.1527   22.1338 O   0  0  0  0  0  0  0  0  0  0  0  0
    0.8865  -10.1736   16.8062 N   0  0  0  0  0  0  0  0  0  0  0  0
    0.6363  -11.5685   22.3514 C   0  0  0  0  0  0  0  0  0  0  0  0
    4.9382   -9.8865   18.4135 C   0  0  0  0  0  0  0  0  0  0  0  0
   10.8301   -3.1290   17.5832 C   0  0  0  0  0  0  0  0  0  0  0  0
    6.7438   -7.4973   17.7359 C   0  0  0  0  0  0  0  0  0  0  0  0
    8.5781   -5.9390   18.1797 N   0  0  0  0  0  0  0  0  0  0  0  0
    9.9427   -4.7068   19.6371 C   0  0  0  0  0  0  0  0  0  0  0  0
    0.4794  -11.4482   19.9323 C   0  0  0  0  0  0  0  0  0  0  0  0
    2.8970  -10.2853   17.8533 C   0  0  0  0  0  0  0  0  0  0  0  0
    9.9066   -4.1176   17.2835 C   0  0  0  0  0  0  0  0  0  0  0  0
    9.4685   -4.9581   18.3697 C   0  0  0  0  0  0  0  0  0  0  0  0
    6.5959   -6.5143   15.2606 C   0  0  0  0  0  0  0  0  0  0  0  0
    5.7287   -7.9676   16.9587 C   0  0  0  0  0  0  0  0  0  0  0  0
    7.6332   -6.5041   17.3535 C   0  0  0  0  0  0  0  0  0  0  0  0
    3.8550  -10.6808   18.6840 N   0  0  0  0  0  0  0  0  0  0  0  0
   11.0986   -3.3658   21.2207 C   0  0  0  0  0  0  0  0  0  0  0  0
    1.1160  -11.8135   21.0849 C   0  0  0  0  0  0  0  0  0  0  0  0
    4.7306   -8.9915   17.4326 C   0  0  0  0  0  0  0  0  0  0  0  0
   -1.3063  -10.5114   21.2530 C   0  0  0  0  0  0  0  0  0  0  0  0
    3.4124   -9.2810   17.0553 N   0  0  0  0  0  0  0  0  0  0  0  0
    9.4002   -4.2777   15.9890 C   0  0  0  0  0  0  0  0  0  0  0  0
   11.2565   -2.8190   18.8531 C   0  0  0  0  0  0  0  0  0  0  0  0
    1.3860   -9.2081   16.0076 C   0  0  0  0  0  0  0  0  0  0  0  0
   -0.6049  -10.8692   22.4441 C   0  0  0  0  0  0  0  0  0  0  0  0
    7.5780   -5.9951   16.0165 C   0  0  0  0  0  0  0  0  0  0  0  0
   -0.7359  -10.8450   20.0542 C   0  0  0  0  0  0  0  0  0  0  0  0
    1.0240  -11.7443   18.6054 C   0  0  0  0  0  0  0  0  0  0  0  0
    2.6597   -8.7525   16.1422 C   0  0  0  0  0  0  0  0  0  0  0  0
   10.7697   -3.6382   19.8893 C   0  0  0  0  0  0  0  0  0  0  0  0
    1.5848  -10.7455   17.7777 C   0  0  0  0  0  0  0  0  0  0  0  0
    5.6785   -7.4130   15.7047 C   0  0  0  0  0  0  0  0  0  0  0  0
  1 19  2  0
  2 24  4  0
  2 28  4  0
  3 19  1  0
  4 26  4  0
  4 33  4  0
  5 20  4  0
  5 27  4  0
  6 18  4  0
  6 21  4  0
  7 13  4  0
  7 25  4  0
  8 16  4  0
  8 17  4  0
  9 14  4  0
  9 17  4  0
 10 14  4  0
 10 32  4  0
 11 20  4  0
 11 29  4  0
 11 30  1  0
 12 18  4  0
 12 23  4  0
 12 33  4  0
 13 14  4  0
 13 24  4  0
 15 28  4  0
 15 34  4  0
 16 21  1  0
 16 34  4  0
 17 28  4  0
 19 32  1  0
 21 23  4  0
 22 27  4  0
 22 29  4  0
 23 31  4  0
 25 32  4  0
 26 31  4  0
 30 33  1  0
M  END
$$$$

 Created by Python create_sdf_string function

 34 39  0  0  0  0  0  0  0  0999 V2000
   11.7748   -2.4134   21.4869 O   0  0  0  0  0  0  0  0  0  0  0  0
    8.4571   -5.0280   15.5489 C   0  0  0  0  0  0  0  0  0  0  0  0
   10.6373   -4.1527   22.1338 O   0  0  0  0  0  0  0  0  0  0  0  0
    0.8865  -10.1736   16.8062 N   0  0  0  0  0  0  0  0  0  0  0  0
    0.6363  -11.5685   22.3514 C   0  0  0  0  0  0  0  0  0  0  0  0
    4.9382   -9.8865   18.4135 C   0  0  0  0  0  0  0  0  0  0  0  0
   10.8301   -3.1290   17.5832 C   0  0  0  0  0  0  0  0  0  0  0  0
    6.7438   -7.4973   17.7359 C   0  0  0  0  0  0  0  0  0  0  0  0
    8.5781   -5.9390   18.1797 N   0  0  0  0  0  0  0  0  0  0  0  0
    9.9427   -4.7068   19.6371 C   0  0  0  0  0  0  0  0  0  0  0  0
    0.4794  -11.4482   19.9323 C   0  0  0  0  0  0  0  0  0  0  0  0
    2.8970  -10.2853   17.8533 C   0  0  0  0  0  0  0  0  0  0  0  0
    9.9066   -4.1176   17.2835 C   0  0  0  0  0  0  0  0  0  0  0  0
    9.4685   -4.9581   18.3697 C   0  0  0  0  0  0  0  0  0  0  0  0
    6.5959   -6.5143   15.2606 C   0  0  0  0  0  0  0  0  0  0  0  0
    5.7287   -7.9676   16.9587 C   0  0  0  0  0  0  0  0  0  0  0  0
    7.6332   -6.5041   17.3535 C   0  0  0  0  0  0  0  0  0  0  0  0
    3.8550  -10.6808   18.6840 N   0  0  0  0  0  0  0  0  0  0  0  0
   11.0986   -3.3658   21.2207 C   0  0  0  0  0  0  0  0  0  0  0  0
    1.1160  -11.8135   21.0849 C   0  0  0  0  0  0  0  0  0  0  0  0
    4.7306   -8.9915   17.4326 C   0  0  0  0  0  0  0  0  0  0  0  0
   -1.3063  -10.5114   21.2530 C   0  0  0  0  0  0  0  0  0  0  0  0
    3.4124   -9.2810   17.0553 N   0  0  0  0  0  0  0  0  0  0  0  0
    9.4002   -4.2777   15.9890 C   0  0  0  0  0  0  0  0  0  0  0  0
   11.2565   -2.8190   18.8531 C   0  0  0  0  0  0  0  0  0  0  0  0
    1.3860   -9.2081   16.0076 C   0  0  0  0  0  0  0  0  0  0  0  0
   -0.6049  -10.8692   22.4441 C   0  0  0  0  0  0  0  0  0  0  0  0
    7.5780   -5.9951   16.0165 C   0  0  0  0  0  0  0  0  0  0  0  0
   -0.7359  -10.8450   20.0542 C   0  0  0  0  0  0  0  0  0  0  0  0
    1.0240  -11.7443   18.6054 C   0  0  0  0  0  0  0  0  0  0  0  0
    2.6597   -8.7525   16.1422 C   0  0  0  0  0  0  0  0  0  0  0  0
   10.7697   -3.6382   19.8893 C   0  0  0  0  0  0  0  0  0  0  0  0
    1.5848  -10.7455   17.7777 C   0  0  0  0  0  0  0  0  0  0  0  0
    5.6785   -7.4130   15.7047 C   0  0  0  0  0  0  0  0  0  0  0  0
  1 19  2  0
  2 24  4  0
  2 28  4  0
  3 19  1  0
  4 26  4  0
  4 33  4  0
  5 20  4  0
  5 27  4  0
  6 18  4  0
  6 21  4  0
  7 13  4  0
  7 25  4  0
  8 16  4  0
  8 17  4  0
  9 14  4  0
  9 17  4  0
 10 14  4  0
 10 32  4  0
 11 20  4  0
 11 29  4  0
 11 30  1  0
 12 18  4  0
 12 23  4  0
 12 33  4  0
 13 14  4  0
 13 24  4  0
 15 28  4  0
 15 34  4  0
 16 21  1  0
 16 34  4  0
 17 28  4  0
 19 32  1  0
 21 23  4  0
 22 27  4  0
 22 29  4  0
 23 31  4  0
 25 32  4  0
 26 31  4  0
 30 33  1  0
M  END
$$$$

 Created by Python create_sdf_string function

 34 39  0  0  0  0  0  0  0  0999 V2000
   11.7748   -2.4134   21.4869 O   0  0  0  0  0  0  0  0  0  0  0  0
    8.4571   -5.0280   15.5489 C   0  0  0  0  0  0  0  0  0  0  0  0
   10.6373   -4.1527   22.1338 O   0  0  0  0  0  0  0  0  0  0  0  0
    0.8865  -10.1736   16.8062 N   0  0  0  0  0  0  0  0  0  0  0  0
    0.6363  -11.5685   22.3514 C   0  0  0  0  0  0  0  0  0  0  0  0
    4.9382   -9.8865   18.4135 C   0  0  0  0  0  0  0  0  0  0  0  0
   10.8301   -3.1290   17.5832 C   0  0  0  0  0  0  0  0  0  0  0  0
    6.7438   -7.4973   17.7359 C   0  0  0  0  0  0  0  0  0  0  0  0
    8.5781   -5.9390   18.1797 N   0  0  0  0  0  0  0  0  0  0  0  0
    9.9427   -4.7068   19.6371 C   0  0  0  0  0  0  0  0  0  0  0  0
    0.4794  -11.4482   19.9323 C   0  0  0  0  0  0  0  0  0  0  0  0
    2.8970  -10.2853   17.8533 C   0  0  0  0  0  0  0  0  0  0  0  0
    9.9066   -4.1176   17.2835 C   0  0  0  0  0  0  0  0  0  0  0  0
    9.4685   -4.9581   18.3697 C   0  0  0  0  0  0  0  0  0  0  0  0
    6.5959   -6.5143   15.2606 C   0  0  0  0  0  0  0  0  0  0  0  0
    5.7287   -7.9676   16.9587 C   0  0  0  0  0  0  0  0  0  0  0  0
    7.6332   -6.5041   17.3535 C   0  0  0  0  0  0  0  0  0  0  0  0
    3.8550  -10.6808   18.6840 N   0  0  0  0  0  0  0  0  0  0  0  0
   11.0986   -3.3658   21.2207 C   0  0  0  0  0  0  0  0  0  0  0  0
    1.1160  -11.8135   21.0849 C   0  0  0  0  0  0  0  0  0  0  0  0
    4.7306   -8.9915   17.4326 C   0  0  0  0  0  0  0  0  0  0  0  0
   -1.3063  -10.5114   21.2530 C   0  0  0  0  0  0  0  0  0  0  0  0
    3.4124   -9.2810   17.0553 N   0  0  0  0  0  0  0  0  0  0  0  0
    9.4002   -4.2777   15.9890 C   0  0  0  0  0  0  0  0  0  0  0  0
   11.2565   -2.8190   18.8531 C   0  0  0  0  0  0  0  0  0  0  0  0
    1.3860   -9.2081   16.0076 C   0  0  0  0  0  0  0  0  0  0  0  0
   -0.6049  -10.8692   22.4441 C   0  0  0  0  0  0  0  0  0  0  0  0
    7.5780   -5.9951   16.0165 C   0  0  0  0  0  0  0  0  0  0  0  0
   -0.7359  -10.8450   20.0542 C   0  0  0  0  0  0  0  0  0  0  0  0
    1.0240  -11.7443   18.6054 C   0  0  0  0  0  0  0  0  0  0  0  0
    2.6597   -8.7525   16.1422 C   0  0  0  0  0  0  0  0  0  0  0  0
   10.7697   -3.6382   19.8893 C   0  0  0  0  0  0  0  0  0  0  0  0
    1.5848  -10.7455   17.7777 C   0  0  0  0  0  0  0  0  0  0  0  0
    5.6785   -7.4130   15.7047 C   0  0  0  0  0  0  0  0  0  0  0  0
  1 19  2  0
  2 24  4  0
  2 28  4  0
  3 19  1  0
  4 26  4  0
  4 33  4  0
  5 20  4  0
  5 27  4  0
  6 18  4  0
  6 21  4  0
  7 13  4  0
  7 25  4  0
  8 16  4  0
  8 17  4  0
  9 14  4  0
  9 17  4  0
 10 14  4  0
 10 32  4  0
 11 20  4  0
 11 29  4  0
 11 30  1  0
 12 18  4  0
 12 23  4  0
 12 33  4  0
 13 14  4  0
 13 24  4  0
 15 28  4  0
 15 34  4  0
 16 21  1  0
 16 34  4  0
 17 28  4  0
 19 32  1  0
 21 23  4  0
 22 27  4  0
 22 29  4  0
 23 31  4  0
 25 32  4  0
 26 31  4  0
 30 33  1  0
M  END
$$$$

 Created by Python create_sdf_string function

 34 39  0  0  0  0  0  0  0  0999 V2000
   11.7748   -2.4134   21.4869 O   0  0  0  0  0  0  0  0  0  0  0  0
    8.4571   -5.0280   15.5489 C   0  0  0  0  0  0  0  0  0  0  0  0
   10.6373   -4.1527   22.1338 O   0  0  0  0  0  0  0  0  0  0  0  0
    0.8865  -10.1736   16.8062 N   0  0  0  0  0  0  0  0  0  0  0  0
    0.6363  -11.5685   22.3514 C   0  0  0  0  0  0  0  0  0  0  0  0
    4.9382   -9.8865   18.4135 C   0  0  0  0  0  0  0  0  0  0  0  0
   10.8301   -3.1290   17.5832 C   0  0  0  0  0  0  0  0  0  0  0  0
    6.7438   -7.4973   17.7359 C   0  0  0  0  0  0  0  0  0  0  0  0
    8.5781   -5.9390   18.1797 N   0  0  0  0  0  0  0  0  0  0  0  0
    9.9427   -4.7068   19.6371 C   0  0  0  0  0  0  0  0  0  0  0  0
    0.4794  -11.4482   19.9323 C   0  0  0  0  0  0  0  0  0  0  0  0
    2.8970  -10.2853   17.8533 C   0  0  0  0  0  0  0  0  0  0  0  0
    9.9066   -4.1176   17.2835 C   0  0  0  0  0  0  0  0  0  0  0  0
    9.4685   -4.9581   18.3697 C   0  0  0  0  0  0  0  0  0  0  0  0
    6.5959   -6.5143   15.2606 C   0  0  0  0  0  0  0  0  0  0  0  0
    5.7287   -7.9676   16.9587 C   0  0  0  0  0  0  0  0  0  0  0  0
    7.6332   -6.5041   17.3535 C   0  0  0  0  0  0  0  0  0  0  0  0
    3.8550  -10.6808   18.6840 N   0  0  0  0  0  0  0  0  0  0  0  0
   11.0986   -3.3658   21.2207 C   0  0  0  0  0  0  0  0  0  0  0  0
    1.1160  -11.8135   21.0849 C   0  0  0  0  0  0  0  0  0  0  0  0
    4.7306   -8.9915   17.4326 C   0  0  0  0  0  0  0  0  0  0  0  0
   -1.3063  -10.5114   21.2530 C   0  0  0  0  0  0  0  0  0  0  0  0
    3.4124   -9.2810   17.0553 N   0  0  0  0  0  0  0  0  0  0  0  0
    9.4002   -4.2777   15.9890 C   0  0  0  0  0  0  0  0  0  0  0  0
   11.2565   -2.8190   18.8531 C   0  0  0  0  0  0  0  0  0  0  0  0
    1.3860   -9.2081   16.0076 C   0  0  0  0  0  0  0  0  0  0  0  0
   -0.6049  -10.8692   22.4441 C   0  0  0  0  0  0  0  0  0  0  0  0
    7.5780   -5.9951   16.0165 C   0  0  0  0  0  0  0  0  0  0  0  0
   -0.7359  -10.8450   20.0542 C   0  0  0  0  0  0  0  0  0  0  0  0
    1.0240  -11.7443   18.6054 C   0  0  0  0  0  0  0  0  0  0  0  0
    2.6597   -8.7525   16.1422 C   0  0  0  0  0  0  0  0  0  0  0  0
   10.7697   -3.6382   19.8893 C   0  0  0  0  0  0  0  0  0  0  0  0
    1.5848  -10.7455   17.7777 C   0  0  0  0  0  0  0  0  0  0  0  0
    5.6785   -7.4130   15.7047 C   0  0  0  0  0  0  0  0  0  0  0  0
  1 19  2  0
  2 24  4  0
  2 28  4  0
  3 19  1  0
  4 26  4  0
  4 33  4  0
  5 20  4  0
  5 27  4  0
  6 18  4  0
  6 21  4  0
  7 13  4  0
  7 25  4  0
  8 16  4  0
  8 17  4  0
  9 14  4  0
  9 17  4  0
 10 14  4  0
 10 32  4  0
 11 20  4  0
 11 29  4  0
 11 30  1  0
 12 18  4  0
 12 23  4  0
 12 33  4  0
 13 14  4  0
 13 24  4  0
 15 28  4  0
 15 34  4  0
 16 21  1  0
 16 34  4  0
 17 28  4  0
 19 32  1  0
 21 23  4  0
 22 27  4  0
 22 29  4  0
 23 31  4  0
 25 32  4  0
 26 31  4  0
 30 33  1  0
M  END
$$$$

 Created by Python create_sdf_string function

 34 39  0  0  0  0  0  0  0  0999 V2000
   11.7748   -2.4134   21.4869 O   0  0  0  0  0  0  0  0  0  0  0  0
    8.4571   -5.0280   15.5489 C   0  0  0  0  0  0  0  0  0  0  0  0
   10.6373   -4.1527   22.1338 O   0  0  0  0  0  0  0  0  0  0  0  0
    0.8865  -10.1736   16.8062 N   0  0  0  0  0  0  0  0  0  0  0  0
    0.6363  -11.5685   22.3514 C   0  0  0  0  0  0  0  0  0  0  0  0
    4.9382   -9.8865   18.4135 C   0  0  0  0  0  0  0  0  0  0  0  0
   10.8301   -3.1290   17.5832 C   0  0  0  0  0  0  0  0  0  0  0  0
    6.7438   -7.4973   17.7359 C   0  0  0  0  0  0  0  0  0  0  0  0
    8.5781   -5.9390   18.1797 N   0  0  0  0  0  0  0  0  0  0  0  0
    9.9427   -4.7068   19.6371 C   0  0  0  0  0  0  0  0  0  0  0  0
    0.4794  -11.4482   19.9323 C   0  0  0  0  0  0  0  0  0  0  0  0
    2.8970  -10.2853   17.8533 C   0  0  0  0  0  0  0  0  0  0  0  0
    9.9066   -4.1176   17.2835 C   0  0  0  0  0  0  0  0  0  0  0  0
    9.4685   -4.9581   18.3697 C   0  0  0  0  0  0  0  0  0  0  0  0
    6.5959   -6.5143   15.2606 C   0  0  0  0  0  0  0  0  0  0  0  0
    5.7287   -7.9676   16.9587 C   0  0  0  0  0  0  0  0  0  0  0  0
    7.6332   -6.5041   17.3535 C   0  0  0  0  0  0  0  0  0  0  0  0
    3.8550  -10.6808   18.6840 N   0  0  0  0  0  0  0  0  0  0  0  0
   11.0986   -3.3658   21.2207 C   0  0  0  0  0  0  0  0  0  0  0  0
    1.1160  -11.8135   21.0849 C   0  0  0  0  0  0  0  0  0  0  0  0
    4.7306   -8.9915   17.4326 C   0  0  0  0  0  0  0  0  0  0  0  0
   -1.3063  -10.5114   21.2530 C   0  0  0  0  0  0  0  0  0  0  0  0
    3.4124   -9.2810   17.0553 N   0  0  0  0  0  0  0  0  0  0  0  0
    9.4002   -4.2777   15.9890 C   0  0  0  0  0  0  0  0  0  0  0  0
   11.2565   -2.8190   18.8531 C   0  0  0  0  0  0  0  0  0  0  0  0
    1.3860   -9.2081   16.0076 C   0  0  0  0  0  0  0  0  0  0  0  0
   -0.6049  -10.8692   22.4441 C   0  0  0  0  0  0  0  0  0  0  0  0
    7.5780   -5.9951   16.0165 C   0  0  0  0  0  0  0  0  0  0  0  0
   -0.7359  -10.8450   20.0542 C   0  0  0  0  0  0  0  0  0  0  0  0
    1.0240  -11.7443   18.6054 C   0  0  0  0  0  0  0  0  0  0  0  0
    2.6597   -8.7525   16.1422 C   0  0  0  0  0  0  0  0  0  0  0  0
   10.7697   -3.6382   19.8893 C   0  0  0  0  0  0  0  0  0  0  0  0
    1.5848  -10.7455   17.7777 C   0  0  0  0  0  0  0  0  0  0  0  0
    5.6785   -7.4130   15.7047 C   0  0  0  0  0  0  0  0  0  0  0  0
  1 19  2  0
  2 24  4  0
  2 28  4  0
  3 19  1  0
  4 26  4  0
  4 33  4  0
  5 20  4  0
  5 27  4  0
  6 18  4  0
  6 21  4  0
  7 13  4  0
  7 25  4  0
  8 16  4  0
  8 17  4  0
  9 14  4  0
  9 17  4  0
 10 14  4  0
 10 32  4  0
 11 20  4  0
 11 29  4  0
 11 30  1  0
 12 18  4  0
 12 23  4  0
 12 33  4  0
 13 14  4  0
 13 24  4  0
 15 28  4  0
 15 34  4  0
 16 21  1  0
 16 34  4  0
 17 28  4  0
 19 32  1  0
 21 23  4  0
 22 27  4  0
 22 29  4  0
 23 31  4  0
 25 32  4  0
 26 31  4  0
 30 33  1  0
M  END
$$$$

 Created by Python create_sdf_string function

 34 39  0  0  0  0  0  0  0  0999 V2000
   11.7748   -2.4134   21.4869 O   0  0  0  0  0  0  0  0  0  0  0  0
    8.4571   -5.0280   15.5489 C   0  0  0  0  0  0  0  0  0  0  0  0
   10.6373   -4.1527   22.1338 O   0  0  0  0  0  0  0  0  0  0  0  0
    0.8865  -10.1736   16.8062 N   0  0  0  0  0  0  0  0  0  0  0  0
    0.6363  -11.5685   22.3514 C   0  0  0  0  0  0  0  0  0  0  0  0
    4.9382   -9.8865   18.4135 C   0  0  0  0  0  0  0  0  0  0  0  0
   10.8301   -3.1290   17.5832 C   0  0  0  0  0  0  0  0  0  0  0  0
    6.7438   -7.4973   17.7359 C   0  0  0  0  0  0  0  0  0  0  0  0
    8.5781   -5.9390   18.1797 N   0  0  0  0  0  0  0  0  0  0  0  0
    9.9427   -4.7068   19.6371 C   0  0  0  0  0  0  0  0  0  0  0  0
    0.4794  -11.4482   19.9323 C   0  0  0  0  0  0  0  0  0  0  0  0
    2.8970  -10.2853   17.8533 C   0  0  0  0  0  0  0  0  0  0  0  0
    9.9066   -4.1176   17.2835 C   0  0  0  0  0  0  0  0  0  0  0  0
    9.4685   -4.9581   18.3697 C   0  0  0  0  0  0  0  0  0  0  0  0
    6.5959   -6.5143   15.2606 C   0  0  0  0  0  0  0  0  0  0  0  0
    5.7287   -7.9676   16.9587 C   0  0  0  0  0  0  0  0  0  0  0  0
    7.6332   -6.5041   17.3535 C   0  0  0  0  0  0  0  0  0  0  0  0
    3.8550  -10.6808   18.6840 N   0  0  0  0  0  0  0  0  0  0  0  0
   11.0986   -3.3658   21.2207 C   0  0  0  0  0  0  0  0  0  0  0  0
    1.1160  -11.8135   21.0849 C   0  0  0  0  0  0  0  0  0  0  0  0
    4.7306   -8.9915   17.4326 C   0  0  0  0  0  0  0  0  0  0  0  0
   -1.3063  -10.5114   21.2530 C   0  0  0  0  0  0  0  0  0  0  0  0
    3.4124   -9.2810   17.0553 N   0  0  0  0  0  0  0  0  0  0  0  0
    9.4002   -4.2777   15.9890 C   0  0  0  0  0  0  0  0  0  0  0  0
   11.2565   -2.8190   18.8531 C   0  0  0  0  0  0  0  0  0  0  0  0
    1.3860   -9.2081   16.0076 C   0  0  0  0  0  0  0  0  0  0  0  0
   -0.6049  -10.8692   22.4441 C   0  0  0  0  0  0  0  0  0  0  0  0
    7.5780   -5.9951   16.0165 C   0  0  0  0  0  0  0  0  0  0  0  0
   -0.7359  -10.8450   20.0542 C   0  0  0  0  0  0  0  0  0  0  0  0
    1.0240  -11.7443   18.6054 C   0  0  0  0  0  0  0  0  0  0  0  0
    2.6597   -8.7525   16.1422 C   0  0  0  0  0  0  0  0  0  0  0  0
   10.7697   -3.6382   19.8893 C   0  0  0  0  0  0  0  0  0  0  0  0
    1.5848  -10.7455   17.7777 C   0  0  0  0  0  0  0  0  0  0  0  0
    5.6785   -7.4130   15.7047 C   0  0  0  0  0  0  0  0  0  0  0  0
  1 19  2  0
  2 24  4  0
  2 28  4  0
  3 19  1  0
  4 26  4  0
  4 33  4  0
  5 20  4  0
  5 27  4  0
  6 18  4  0
  6 21  4  0
  7 13  4  0
  7 25  4  0
  8 16  4  0
  8 17  4  0
  9 14  4  0
  9 17  4  0
 10 14  4  0
 10 32  4  0
 11 20  4  0
 11 29  4  0
 11 30  1  0
 12 18  4  0
 12 23  4  0
 12 33  4  0
 13 14  4  0
 13 24  4  0
 15 28  4  0
 15 34  4  0
 16 21  1  0
 16 34  4  0
 17 28  4  0
 19 32  1  0
 21 23  4  0
 22 27  4  0
 22 29  4  0
 23 31  4  0
 25 32  4  0
 26 31  4  0
 30 33  1  0
M  END
$$$$

 Created by Python create_sdf_string function

 34 39  0  0  0  0  0  0  0  0999 V2000
   11.7748   -2.4134   21.4869 O   0  0  0  0  0  0  0  0  0  0  0  0
    8.4571   -5.0280   15.5489 C   0  0  0  0  0  0  0  0  0  0  0  0
   10.6373   -4.1527   22.1338 O   0  0  0  0  0  0  0  0  0  0  0  0
    0.8865  -10.1736   16.8062 N   0  0  0  0  0  0  0  0  0  0  0  0
    0.6363  -11.5685   22.3514 C   0  0  0  0  0  0  0  0  0  0  0  0
    4.9382   -9.8865   18.4135 C   0  0  0  0  0  0  0  0  0  0  0  0
   10.8301   -3.1290   17.5832 C   0  0  0  0  0  0  0  0  0  0  0  0
    6.7438   -7.4973   17.7359 C   0  0  0  0  0  0  0  0  0  0  0  0
    8.5781   -5.9390   18.1797 N   0  0  0  0  0  0  0  0  0  0  0  0
    9.9427   -4.7068   19.6371 C   0  0  0  0  0  0  0  0  0  0  0  0
    0.4794  -11.4482   19.9323 C   0  0  0  0  0  0  0  0  0  0  0  0
    2.8970  -10.2853   17.8533 C   0  0  0  0  0  0  0  0  0  0  0  0
    9.9066   -4.1176   17.2835 C   0  0  0  0  0  0  0  0  0  0  0  0
    9.4685   -4.9581   18.3697 C   0  0  0  0  0  0  0  0  0  0  0  0
    6.5959   -6.5143   15.2606 C   0  0  0  0  0  0  0  0  0  0  0  0
    5.7287   -7.9676   16.9587 C   0  0  0  0  0  0  0  0  0  0  0  0
    7.6332   -6.5041   17.3535 C   0  0  0  0  0  0  0  0  0  0  0  0
    3.8550  -10.6808   18.6840 N   0  0  0  0  0  0  0  0  0  0  0  0
   11.0986   -3.3658   21.2207 C   0  0  0  0  0  0  0  0  0  0  0  0
    1.1160  -11.8135   21.0849 C   0  0  0  0  0  0  0  0  0  0  0  0
    4.7306   -8.9915   17.4326 C   0  0  0  0  0  0  0  0  0  0  0  0
   -1.3063  -10.5114   21.2530 C   0  0  0  0  0  0  0  0  0  0  0  0
    3.4124   -9.2810   17.0553 N   0  0  0  0  0  0  0  0  0  0  0  0
    9.4002   -4.2777   15.9890 C   0  0  0  0  0  0  0  0  0  0  0  0
   11.2565   -2.8190   18.8531 C   0  0  0  0  0  0  0  0  0  0  0  0
    1.3860   -9.2081   16.0076 C   0  0  0  0  0  0  0  0  0  0  0  0
   -0.6049  -10.8692   22.4441 C   0  0  0  0  0  0  0  0  0  0  0  0
    7.5780   -5.9951   16.0165 C   0  0  0  0  0  0  0  0  0  0  0  0
   -0.7359  -10.8450   20.0542 C   0  0  0  0  0  0  0  0  0  0  0  0
    1.0240  -11.7443   18.6054 C   0  0  0  0  0  0  0  0  0  0  0  0
    2.6597   -8.7525   16.1422 C   0  0  0  0  0  0  0  0  0  0  0  0
   10.7697   -3.6382   19.8893 C   0  0  0  0  0  0  0  0  0  0  0  0
    1.5848  -10.7455   17.7777 C   0  0  0  0  0  0  0  0  0  0  0  0
    5.6785   -7.4130   15.7047 C   0  0  0  0  0  0  0  0  0  0  0  0
  1 19  2  0
  2 24  4  0
  2 28  4  0
  3 19  1  0
  4 26  4  0
  4 33  4  0
  5 20  4  0
  5 27  4  0
  6 18  4  0
  6 21  4  0
  7 13  4  0
  7 25  4  0
  8 16  4  0
  8 17  4  0
  9 14  4  0
  9 17  4  0
 10 14  4  0
 10 32  4  0
 11 20  4  0
 11 29  4  0
 11 30  1  0
 12 18  4  0
 12 23  4  0
 12 33  4  0
 13 14  4  0
 13 24  4  0
 15 28  4  0
 15 34  4  0
 16 21  1  0
 16 34  4  0
 17 28  4  0
 19 32  1  0
 21 23  4  0
 22 27  4  0
 22 29  4  0
 23 31  4  0
 25 32  4  0
 26 31  4  0
 30 33  1  0
M  END
$$$$

 Created by Python create_sdf_string function

 34 39  0  0  0  0  0  0  0  0999 V2000
   11.7748   -2.4134   21.4869 O   0  0  0  0  0  0  0  0  0  0  0  0
    8.4571   -5.0280   15.5489 C   0  0  0  0  0  0  0  0  0  0  0  0
   10.6373   -4.1527   22.1338 O   0  0  0  0  0  0  0  0  0  0  0  0
    0.8865  -10.1736   16.8062 N   0  0  0  0  0  0  0  0  0  0  0  0
    0.6363  -11.5685   22.3514 C   0  0  0  0  0  0  0  0  0  0  0  0
    4.9382   -9.8865   18.4135 C   0  0  0  0  0  0  0  0  0  0  0  0
   10.8301   -3.1290   17.5832 C   0  0  0  0  0  0  0  0  0  0  0  0
    6.7438   -7.4973   17.7359 C   0  0  0  0  0  0  0  0  0  0  0  0
    8.5781   -5.9390   18.1797 N   0  0  0  0  0  0  0  0  0  0  0  0
    9.9427   -4.7068   19.6371 C   0  0  0  0  0  0  0  0  0  0  0  0
    0.4794  -11.4482   19.9323 C   0  0  0  0  0  0  0  0  0  0  0  0
    2.8970  -10.2853   17.8533 C   0  0  0  0  0  0  0  0  0  0  0  0
    9.9066   -4.1176   17.2835 C   0  0  0  0  0  0  0  0  0  0  0  0
    9.4685   -4.9581   18.3697 C   0  0  0  0  0  0  0  0  0  0  0  0
    6.5959   -6.5143   15.2606 C   0  0  0  0  0  0  0  0  0  0  0  0
    5.7287   -7.9676   16.9587 C   0  0  0  0  0  0  0  0  0  0  0  0
    7.6332   -6.5041   17.3535 C   0  0  0  0  0  0  0  0  0  0  0  0
    3.8550  -10.6808   18.6840 N   0  0  0  0  0  0  0  0  0  0  0  0
   11.0986   -3.3658   21.2207 C   0  0  0  0  0  0  0  0  0  0  0  0
    1.1160  -11.8135   21.0849 C   0  0  0  0  0  0  0  0  0  0  0  0
    4.7306   -8.9915   17.4326 C   0  0  0  0  0  0  0  0  0  0  0  0
   -1.3063  -10.5114   21.2530 C   0  0  0  0  0  0  0  0  0  0  0  0
    3.4124   -9.2810   17.0553 N   0  0  0  0  0  0  0  0  0  0  0  0
    9.4002   -4.2777   15.9890 C   0  0  0  0  0  0  0  0  0  0  0  0
   11.2565   -2.8190   18.8531 C   0  0  0  0  0  0  0  0  0  0  0  0
    1.3860   -9.2081   16.0076 C   0  0  0  0  0  0  0  0  0  0  0  0
   -0.6049  -10.8692   22.4441 C   0  0  0  0  0  0  0  0  0  0  0  0
    7.5780   -5.9951   16.0165 C   0  0  0  0  0  0  0  0  0  0  0  0
   -0.7359  -10.8450   20.0542 C   0  0  0  0  0  0  0  0  0  0  0  0
    1.0240  -11.7443   18.6054 C   0  0  0  0  0  0  0  0  0  0  0  0
    2.6597   -8.7525   16.1422 C   0  0  0  0  0  0  0  0  0  0  0  0
   10.7697   -3.6382   19.8893 C   0  0  0  0  0  0  0  0  0  0  0  0
    1.5848  -10.7455   17.7777 C   0  0  0  0  0  0  0  0  0  0  0  0
    5.6785   -7.4130   15.7047 C   0  0  0  0  0  0  0  0  0  0  0  0
  1 19  2  0
  2 24  4  0
  2 28  4  0
  3 19  1  0
  4 26  4  0
  4 33  4  0
  5 20  4  0
  5 27  4  0
  6 18  4  0
  6 21  4  0
  7 13  4  0
  7 25  4  0
  8 16  4  0
  8 17  4  0
  9 14  4  0
  9 17  4  0
 10 14  4  0
 10 32  4  0
 11 20  4  0
 11 29  4  0
 11 30  1  0
 12 18  4  0
 12 23  4  0
 12 33  4  0
 13 14  4  0
 13 24  4  0
 15 28  4  0
 15 34  4  0
 16 21  1  0
 16 34  4  0
 17 28  4  0
 19 32  1  0
 21 23  4  0
 22 27  4  0
 22 29  4  0
 23 31  4  0
 25 32  4  0
 26 31  4  0
 30 33  1  0
M  END
$$$$

 Created by Python create_sdf_string function

 34 39  0  0  0  0  0  0  0  0999 V2000
   11.7748   -2.4134   21.4869 O   0  0  0  0  0  0  0  0  0  0  0  0
    8.4571   -5.0280   15.5489 C   0  0  0  0  0  0  0  0  0  0  0  0
   10.6373   -4.1527   22.1338 O   0  0  0  0  0  0  0  0  0  0  0  0
    0.8865  -10.1736   16.8062 N   0  0  0  0  0  0  0  0  0  0  0  0
    0.6363  -11.5685   22.3514 C   0  0  0  0  0  0  0  0  0  0  0  0
    4.9382   -9.8865   18.4135 C   0  0  0  0  0  0  0  0  0  0  0  0
   10.8301   -3.1290   17.5832 C   0  0  0  0  0  0  0  0  0  0  0  0
    6.7438   -7.4973   17.7359 C   0  0  0  0  0  0  0  0  0  0  0  0
    8.5781   -5.9390   18.1797 N   0  0  0  0  0  0  0  0  0  0  0  0
    9.9427   -4.7068   19.6371 C   0  0  0  0  0  0  0  0  0  0  0  0
    0.4794  -11.4482   19.9323 C   0  0  0  0  0  0  0  0  0  0  0  0
    2.8970  -10.2853   17.8533 C   0  0  0  0  0  0  0  0  0  0  0  0
    9.9066   -4.1176   17.2835 C   0  0  0  0  0  0  0  0  0  0  0  0
    9.4685   -4.9581   18.3697 C   0  0  0  0  0  0  0  0  0  0  0  0
    6.5959   -6.5143   15.2606 C   0  0  0  0  0  0  0  0  0  0  0  0
    5.7287   -7.9676   16.9587 C   0  0  0  0  0  0  0  0  0  0  0  0
    7.6332   -6.5041   17.3535 C   0  0  0  0  0  0  0  0  0  0  0  0
    3.8550  -10.6808   18.6840 N   0  0  0  0  0  0  0  0  0  0  0  0
   11.0986   -3.3658   21.2207 C   0  0  0  0  0  0  0  0  0  0  0  0
    1.1160  -11.8135   21.0849 C   0  0  0  0  0  0  0  0  0  0  0  0
    4.7306   -8.9915   17.4326 C   0  0  0  0  0  0  0  0  0  0  0  0
   -1.3063  -10.5114   21.2530 C   0  0  0  0  0  0  0  0  0  0  0  0
    3.4124   -9.2810   17.0553 N   0  0  0  0  0  0  0  0  0  0  0  0
    9.4002   -4.2777   15.9890 C   0  0  0  0  0  0  0  0  0  0  0  0
   11.2565   -2.8190   18.8531 C   0  0  0  0  0  0  0  0  0  0  0  0
    1.3860   -9.2081   16.0076 C   0  0  0  0  0  0  0  0  0  0  0  0
   -0.6049  -10.8692   22.4441 C   0  0  0  0  0  0  0  0  0  0  0  0
    7.5780   -5.9951   16.0165 C   0  0  0  0  0  0  0  0  0  0  0  0
   -0.7359  -10.8450   20.0542 C   0  0  0  0  0  0  0  0  0  0  0  0
    1.0240  -11.7443   18.6054 C   0  0  0  0  0  0  0  0  0  0  0  0
    2.6597   -8.7525   16.1422 C   0  0  0  0  0  0  0  0  0  0  0  0
   10.7697   -3.6382   19.8893 C   0  0  0  0  0  0  0  0  0  0  0  0
    1.5848  -10.7455   17.7777 C   0  0  0  0  0  0  0  0  0  0  0  0
    5.6785   -7.4130   15.7047 C   0  0  0  0  0  0  0  0  0  0  0  0
  1 19  2  0
  2 24  4  0
  2 28  4  0
  3 19  1  0
  4 26  4  0
  4 33  4  0
  5 20  4  0
  5 27  4  0
  6 18  4  0
  6 21  4  0
  7 13  4  0
  7 25  4  0
  8 16  4  0
  8 17  4  0
  9 14  4  0
  9 17  4  0
 10 14  4  0
 10 32  4  0
 11 20  4  0
 11 29  4  0
 11 30  1  0
 12 18  4  0
 12 23  4  0
 12 33  4  0
 13 14  4  0
 13 24  4  0
 15 28  4  0
 15 34  4  0
 16 21  1  0
 16 34  4  0
 17 28  4  0
 19 32  1  0
 21 23  4  0
 22 27  4  0
 22 29  4  0
 23 31  4  0
 25 32  4  0
 26 31  4  0
 30 33  1  0
M  END
$$$$

 Created by Python create_sdf_string function

 34 39  0  0  0  0  0  0  0  0999 V2000
   11.7748   -2.4134   21.4869 O   0  0  0  0  0  0  0  0  0  0  0  0
    8.4571   -5.0280   15.5489 C   0  0  0  0  0  0  0  0  0  0  0  0
   10.6373   -4.1527   22.1338 O   0  0  0  0  0  0  0  0  0  0  0  0
    0.8865  -10.1736   16.8062 N   0  0  0  0  0  0  0  0  0  0  0  0
    0.6363  -11.5685   22.3514 C   0  0  0  0  0  0  0  0  0  0  0  0
    4.9382   -9.8865   18.4135 C   0  0  0  0  0  0  0  0  0  0  0  0
   10.8301   -3.1290   17.5832 C   0  0  0  0  0  0  0  0  0  0  0  0
    6.7438   -7.4973   17.7359 C   0  0  0  0  0  0  0  0  0  0  0  0
    8.5781   -5.9390   18.1797 N   0  0  0  0  0  0  0  0  0  0  0  0
    9.9427   -4.7068   19.6371 C   0  0  0  0  0  0  0  0  0  0  0  0
    0.4794  -11.4482   19.9323 C   0  0  0  0  0  0  0  0  0  0  0  0
    2.8970  -10.2853   17.8533 C   0  0  0  0  0  0  0  0  0  0  0  0
    9.9066   -4.1176   17.2835 C   0  0  0  0  0  0  0  0  0  0  0  0
    9.4685   -4.9581   18.3697 C   0  0  0  0  0  0  0  0  0  0  0  0
    6.5959   -6.5143   15.2606 C   0  0  0  0  0  0  0  0  0  0  0  0
    5.7287   -7.9676   16.9587 C   0  0  0  0  0  0  0  0  0  0  0  0
    7.6332   -6.5041   17.3535 C   0  0  0  0  0  0  0  0  0  0  0  0
    3.8550  -10.6808   18.6840 N   0  0  0  0  0  0  0  0  0  0  0  0
   11.0986   -3.3658   21.2207 C   0  0  0  0  0  0  0  0  0  0  0  0
    1.1160  -11.8135   21.0849 C   0  0  0  0  0  0  0  0  0  0  0  0
    4.7306   -8.9915   17.4326 C   0  0  0  0  0  0  0  0  0  0  0  0
   -1.3063  -10.5114   21.2530 C   0  0  0  0  0  0  0  0  0  0  0  0
    3.4124   -9.2810   17.0553 N   0  0  0  0  0  0  0  0  0  0  0  0
    9.4002   -4.2777   15.9890 C   0  0  0  0  0  0  0  0  0  0  0  0
   11.2565   -2.8190   18.8531 C   0  0  0  0  0  0  0  0  0  0  0  0
    1.3860   -9.2081   16.0076 C   0  0  0  0  0  0  0  0  0  0  0  0
   -0.6049  -10.8692   22.4441 C   0  0  0  0  0  0  0  0  0  0  0  0
    7.5780   -5.9951   16.0165 C   0  0  0  0  0  0  0  0  0  0  0  0
   -0.7359  -10.8450   20.0542 C   0  0  0  0  0  0  0  0  0  0  0  0
    1.0240  -11.7443   18.6054 C   0  0  0  0  0  0  0  0  0  0  0  0
    2.6597   -8.7525   16.1422 C   0  0  0  0  0  0  0  0  0  0  0  0
   10.7697   -3.6382   19.8893 C   0  0  0  0  0  0  0  0  0  0  0  0
    1.5848  -10.7455   17.7777 C   0  0  0  0  0  0  0  0  0  0  0  0
    5.6785   -7.4130   15.7047 C   0  0  0  0  0  0  0  0  0  0  0  0
  1 19  2  0
  2 24  4  0
  2 28  4  0
  3 19  1  0
  4 26  4  0
  4 33  4  0
  5 20  4  0
  5 27  4  0
  6 18  4  0
  6 21  4  0
  7 13  4  0
  7 25  4  0
  8 16  4  0
  8 17  4  0
  9 14  4  0
  9 17  4  0
 10 14  4  0
 10 32  4  0
 11 20  4  0
 11 29  4  0
 11 30  1  0
 12 18  4  0
 12 23  4  0
 12 33  4  0
 13 14  4  0
 13 24  4  0
 15 28  4  0
 15 34  4  0
 16 21  1  0
 16 34  4  0
 17 28  4  0
 19 32  1  0
 21 23  4  0
 22 27  4  0
 22 29  4  0
 23 31  4  0
 25 32  4  0
 26 31  4  0
 30 33  1  0
M  END
$$$$

 Created by Python create_sdf_string function

 34 39  0  0  0  0  0  0  0  0999 V2000
   11.7748   -2.4134   21.4869 O   0  0  0  0  0  0  0  0  0  0  0  0
    8.4571   -5.0280   15.5489 C   0  0  0  0  0  0  0  0  0  0  0  0
   10.6373   -4.1527   22.1338 O   0  0  0  0  0  0  0  0  0  0  0  0
    0.8865  -10.1736   16.8062 N   0  0  0  0  0  0  0  0  0  0  0  0
    0.6363  -11.5685   22.3514 C   0  0  0  0  0  0  0  0  0  0  0  0
    4.9382   -9.8865   18.4135 C   0  0  0  0  0  0  0  0  0  0  0  0
   10.8301   -3.1290   17.5832 C   0  0  0  0  0  0  0  0  0  0  0  0
    6.7438   -7.4973   17.7359 C   0  0  0  0  0  0  0  0  0  0  0  0
    8.5781   -5.9390   18.1797 N   0  0  0  0  0  0  0  0  0  0  0  0
    9.9427   -4.7068   19.6371 C   0  0  0  0  0  0  0  0  0  0  0  0
    0.4794  -11.4482   19.9323 C   0  0  0  0  0  0  0  0  0  0  0  0
    2.8970  -10.2853   17.8533 C   0  0  0  0  0  0  0  0  0  0  0  0
    9.9066   -4.1176   17.2835 C   0  0  0  0  0  0  0  0  0  0  0  0
    9.4685   -4.9581   18.3697 C   0  0  0  0  0  0  0  0  0  0  0  0
    6.5959   -6.5143   15.2606 C   0  0  0  0  0  0  0  0  0  0  0  0
    5.7287   -7.9676   16.9587 C   0  0  0  0  0  0  0  0  0  0  0  0
    7.6332   -6.5041   17.3535 C   0  0  0  0  0  0  0  0  0  0  0  0
    3.8550  -10.6808   18.6840 N   0  0  0  0  0  0  0  0  0  0  0  0
   11.0986   -3.3658   21.2207 C   0  0  0  0  0  0  0  0  0  0  0  0
    1.1160  -11.8135   21.0849 C   0  0  0  0  0  0  0  0  0  0  0  0
    4.7306   -8.9915   17.4326 C   0  0  0  0  0  0  0  0  0  0  0  0
   -1.3063  -10.5114   21.2530 C   0  0  0  0  0  0  0  0  0  0  0  0
    3.4124   -9.2810   17.0553 N   0  0  0  0  0  0  0  0  0  0  0  0
    9.4002   -4.2777   15.9890 C   0  0  0  0  0  0  0  0  0  0  0  0
   11.2565   -2.8190   18.8531 C   0  0  0  0  0  0  0  0  0  0  0  0
    1.3860   -9.2081   16.0076 C   0  0  0  0  0  0  0  0  0  0  0  0
   -0.6049  -10.8692   22.4441 C   0  0  0  0  0  0  0  0  0  0  0  0
    7.5780   -5.9951   16.0165 C   0  0  0  0  0  0  0  0  0  0  0  0
   -0.7359  -10.8450   20.0542 C   0  0  0  0  0  0  0  0  0  0  0  0
    1.0240  -11.7443   18.6054 C   0  0  0  0  0  0  0  0  0  0  0  0
    2.6597   -8.7525   16.1422 C   0  0  0  0  0  0  0  0  0  0  0  0
   10.7697   -3.6382   19.8893 C   0  0  0  0  0  0  0  0  0  0  0  0
    1.5848  -10.7455   17.7777 C   0  0  0  0  0  0  0  0  0  0  0  0
    5.6785   -7.4130   15.7047 C   0  0  0  0  0  0  0  0  0  0  0  0
  1 19  2  0
  2 24  4  0
  2 28  4  0
  3 19  1  0
  4 26  4  0
  4 33  4  0
  5 20  4  0
  5 27  4  0
  6 18  4  0
  6 21  4  0
  7 13  4  0
  7 25  4  0
  8 16  4  0
  8 17  4  0
  9 14  4  0
  9 17  4  0
 10 14  4  0
 10 32  4  0
 11 20  4  0
 11 29  4  0
 11 30  1  0
 12 18  4  0
 12 23  4  0
 12 33  4  0
 13 14  4  0
 13 24  4  0
 15 28  4  0
 15 34  4  0
 16 21  1  0
 16 34  4  0
 17 28  4  0
 19 32  1  0
 21 23  4  0
 22 27  4  0
 22 29  4  0
 23 31  4  0
 25 32  4  0
 26 31  4  0
 30 33  1  0
M  END
$$$$

 Created by Python create_sdf_string function

 34 39  0  0  0  0  0  0  0  0999 V2000
   11.7748   -2.4134   21.4869 O   0  0  0  0  0  0  0  0  0  0  0  0
    8.4571   -5.0280   15.5489 C   0  0  0  0  0  0  0  0  0  0  0  0
   10.6373   -4.1527   22.1338 O   0  0  0  0  0  0  0  0  0  0  0  0
    0.8865  -10.1736   16.8062 N   0  0  0  0  0  0  0  0  0  0  0  0
    0.6363  -11.5685   22.3514 C   0  0  0  0  0  0  0  0  0  0  0  0
    4.9382   -9.8865   18.4135 C   0  0  0  0  0  0  0  0  0  0  0  0
   10.8301   -3.1290   17.5832 C   0  0  0  0  0  0  0  0  0  0  0  0
    6.7438   -7.4973   17.7359 C   0  0  0  0  0  0  0  0  0  0  0  0
    8.5781   -5.9390   18.1797 N   0  0  0  0  0  0  0  0  0  0  0  0
    9.9427   -4.7068   19.6371 C   0  0  0  0  0  0  0  0  0  0  0  0
    0.4794  -11.4482   19.9323 C   0  0  0  0  0  0  0  0  0  0  0  0
    2.8970  -10.2853   17.8533 C   0  0  0  0  0  0  0  0  0  0  0  0
    9.9066   -4.1176   17.2835 C   0  0  0  0  0  0  0  0  0  0  0  0
    9.4685   -4.9581   18.3697 C   0  0  0  0  0  0  0  0  0  0  0  0
    6.5959   -6.5143   15.2606 C   0  0  0  0  0  0  0  0  0  0  0  0
    5.7287   -7.9676   16.9587 C   0  0  0  0  0  0  0  0  0  0  0  0
    7.6332   -6.5041   17.3535 C   0  0  0  0  0  0  0  0  0  0  0  0
    3.8550  -10.6808   18.6840 N   0  0  0  0  0  0  0  0  0  0  0  0
   11.0986   -3.3658   21.2207 C   0  0  0  0  0  0  0  0  0  0  0  0
    1.1160  -11.8135   21.0849 C   0  0  0  0  0  0  0  0  0  0  0  0
    4.7306   -8.9915   17.4326 C   0  0  0  0  0  0  0  0  0  0  0  0
   -1.3063  -10.5114   21.2530 C   0  0  0  0  0  0  0  0  0  0  0  0
    3.4124   -9.2810   17.0553 N   0  0  0  0  0  0  0  0  0  0  0  0
    9.4002   -4.2777   15.9890 C   0  0  0  0  0  0  0  0  0  0  0  0
   11.2565   -2.8190   18.8531 C   0  0  0  0  0  0  0  0  0  0  0  0
    1.3860   -9.2081   16.0076 C   0  0  0  0  0  0  0  0  0  0  0  0
   -0.6049  -10.8692   22.4441 C   0  0  0  0  0  0  0  0  0  0  0  0
    7.5780   -5.9951   16.0165 C   0  0  0  0  0  0  0  0  0  0  0  0
   -0.7359  -10.8450   20.0542 C   0  0  0  0  0  0  0  0  0  0  0  0
    1.0240  -11.7443   18.6054 C   0  0  0  0  0  0  0  0  0  0  0  0
    2.6597   -8.7525   16.1422 C   0  0  0  0  0  0  0  0  0  0  0  0
   10.7697   -3.6382   19.8893 C   0  0  0  0  0  0  0  0  0  0  0  0
    1.5848  -10.7455   17.7777 C   0  0  0  0  0  0  0  0  0  0  0  0
    5.6785   -7.4130   15.7047 C   0  0  0  0  0  0  0  0  0  0  0  0
  1 19  2  0
  2 24  4  0
  2 28  4  0
  3 19  1  0
  4 26  4  0
  4 33  4  0
  5 20  4  0
  5 27  4  0
  6 18  4  0
  6 21  4  0
  7 13  4  0
  7 25  4  0
  8 16  4  0
  8 17  4  0
  9 14  4  0
  9 17  4  0
 10 14  4  0
 10 32  4  0
 11 20  4  0
 11 29  4  0
 11 30  1  0
 12 18  4  0
 12 23  4  0
 12 33  4  0
 13 14  4  0
 13 24  4  0
 15 28  4  0
 15 34  4  0
 16 21  1  0
 16 34  4  0
 17 28  4  0
 19 32  1  0
 21 23  4  0
 22 27  4  0
 22 29  4  0
 23 31  4  0
 25 32  4  0
 26 31  4  0
 30 33  1  0
M  END
$$$$

 Created by Python create_sdf_string function

 34 39  0  0  0  0  0  0  0  0999 V2000
   11.7748   -2.4134   21.4869 O   0  0  0  0  0  0  0  0  0  0  0  0
    8.4571   -5.0280   15.5489 C   0  0  0  0  0  0  0  0  0  0  0  0
   10.6373   -4.1527   22.1338 O   0  0  0  0  0  0  0  0  0  0  0  0
    0.8865  -10.1736   16.8062 N   0  0  0  0  0  0  0  0  0  0  0  0
    0.6363  -11.5685   22.3514 C   0  0  0  0  0  0  0  0  0  0  0  0
    4.9382   -9.8865   18.4135 C   0  0  0  0  0  0  0  0  0  0  0  0
   10.8301   -3.1290   17.5832 C   0  0  0  0  0  0  0  0  0  0  0  0
    6.7438   -7.4973   17.7359 C   0  0  0  0  0  0  0  0  0  0  0  0
    8.5781   -5.9390   18.1797 N   0  0  0  0  0  0  0  0  0  0  0  0
    9.9427   -4.7068   19.6371 C   0  0  0  0  0  0  0  0  0  0  0  0
    0.4794  -11.4482   19.9323 C   0  0  0  0  0  0  0  0  0  0  0  0
    2.8970  -10.2853   17.8533 C   0  0  0  0  0  0  0  0  0  0  0  0
    9.9066   -4.1176   17.2835 C   0  0  0  0  0  0  0  0  0  0  0  0
    9.4685   -4.9581   18.3697 C   0  0  0  0  0  0  0  0  0  0  0  0
    6.5959   -6.5143   15.2606 C   0  0  0  0  0  0  0  0  0  0  0  0
    5.7287   -7.9676   16.9587 C   0  0  0  0  0  0  0  0  0  0  0  0
    7.6332   -6.5041   17.3535 C   0  0  0  0  0  0  0  0  0  0  0  0
    3.8550  -10.6808   18.6840 N   0  0  0  0  0  0  0  0  0  0  0  0
   11.0986   -3.3658   21.2207 C   0  0  0  0  0  0  0  0  0  0  0  0
    1.1160  -11.8135   21.0849 C   0  0  0  0  0  0  0  0  0  0  0  0
    4.7306   -8.9915   17.4326 C   0  0  0  0  0  0  0  0  0  0  0  0
   -1.3063  -10.5114   21.2530 C   0  0  0  0  0  0  0  0  0  0  0  0
    3.4124   -9.2810   17.0553 N   0  0  0  0  0  0  0  0  0  0  0  0
    9.4002   -4.2777   15.9890 C   0  0  0  0  0  0  0  0  0  0  0  0
   11.2565   -2.8190   18.8531 C   0  0  0  0  0  0  0  0  0  0  0  0
    1.3860   -9.2081   16.0076 C   0  0  0  0  0  0  0  0  0  0  0  0
   -0.6049  -10.8692   22.4441 C   0  0  0  0  0  0  0  0  0  0  0  0
    7.5780   -5.9951   16.0165 C   0  0  0  0  0  0  0  0  0  0  0  0
   -0.7359  -10.8450   20.0542 C   0  0  0  0  0  0  0  0  0  0  0  0
    1.0240  -11.7443   18.6054 C   0  0  0  0  0  0  0  0  0  0  0  0
    2.6597   -8.7525   16.1422 C   0  0  0  0  0  0  0  0  0  0  0  0
   10.7697   -3.6382   19.8893 C   0  0  0  0  0  0  0  0  0  0  0  0
    1.5848  -10.7455   17.7777 C   0  0  0  0  0  0  0  0  0  0  0  0
    5.6785   -7.4130   15.7047 C   0  0  0  0  0  0  0  0  0  0  0  0
  1 19  2  0
  2 24  4  0
  2 28  4  0
  3 19  1  0
  4 26  4  0
  4 33  4  0
  5 20  4  0
  5 27  4  0
  6 18  4  0
  6 21  4  0
  7 13  4  0
  7 25  4  0
  8 16  4  0
  8 17  4  0
  9 14  4  0
  9 17  4  0
 10 14  4  0
 10 32  4  0
 11 20  4  0
 11 29  4  0
 11 30  1  0
 12 18  4  0
 12 23  4  0
 12 33  4  0
 13 14  4  0
 13 24  4  0
 15 28  4  0
 15 34  4  0
 16 21  1  0
 16 34  4  0
 17 28  4  0
 19 32  1  0
 21 23  4  0
 22 27  4  0
 22 29  4  0
 23 31  4  0
 25 32  4  0
 26 31  4  0
 30 33  1  0
M  END
$$$$

 Created by Python create_sdf_string function

 34 39  0  0  0  0  0  0  0  0999 V2000
   11.7748   -2.4134   21.4869 O   0  0  0  0  0  0  0  0  0  0  0  0
    8.4571   -5.0280   15.5489 C   0  0  0  0  0  0  0  0  0  0  0  0
   10.6373   -4.1527   22.1338 O   0  0  0  0  0  0  0  0  0  0  0  0
    0.8865  -10.1736   16.8062 N   0  0  0  0  0  0  0  0  0  0  0  0
    0.6363  -11.5685   22.3514 C   0  0  0  0  0  0  0  0  0  0  0  0
    4.9382   -9.8865   18.4135 C   0  0  0  0  0  0  0  0  0  0  0  0
   10.8301   -3.1290   17.5832 C   0  0  0  0  0  0  0  0  0  0  0  0
    6.7438   -7.4973   17.7359 C   0  0  0  0  0  0  0  0  0  0  0  0
    8.5781   -5.9390   18.1797 N   0  0  0  0  0  0  0  0  0  0  0  0
    9.9427   -4.7068   19.6371 C   0  0  0  0  0  0  0  0  0  0  0  0
    0.4794  -11.4482   19.9323 C   0  0  0  0  0  0  0  0  0  0  0  0
    2.8970  -10.2853   17.8533 C   0  0  0  0  0  0  0  0  0  0  0  0
    9.9066   -4.1176   17.2835 C   0  0  0  0  0  0  0  0  0  0  0  0
    9.4685   -4.9581   18.3697 C   0  0  0  0  0  0  0  0  0  0  0  0
    6.5959   -6.5143   15.2606 C   0  0  0  0  0  0  0  0  0  0  0  0
    5.7287   -7.9676   16.9587 C   0  0  0  0  0  0  0  0  0  0  0  0
    7.6332   -6.5041   17.3535 C   0  0  0  0  0  0  0  0  0  0  0  0
    3.8550  -10.6808   18.6840 N   0  0  0  0  0  0  0  0  0  0  0  0
   11.0986   -3.3658   21.2207 C   0  0  0  0  0  0  0  0  0  0  0  0
    1.1160  -11.8135   21.0849 C   0  0  0  0  0  0  0  0  0  0  0  0
    4.7306   -8.9915   17.4326 C   0  0  0  0  0  0  0  0  0  0  0  0
   -1.3063  -10.5114   21.2530 C   0  0  0  0  0  0  0  0  0  0  0  0
    3.4124   -9.2810   17.0553 N   0  0  0  0  0  0  0  0  0  0  0  0
    9.4002   -4.2777   15.9890 C   0  0  0  0  0  0  0  0  0  0  0  0
   11.2565   -2.8190   18.8531 C   0  0  0  0  0  0  0  0  0  0  0  0
    1.3860   -9.2081   16.0076 C   0  0  0  0  0  0  0  0  0  0  0  0
   -0.6049  -10.8692   22.4441 C   0  0  0  0  0  0  0  0  0  0  0  0
    7.5780   -5.9951   16.0165 C   0  0  0  0  0  0  0  0  0  0  0  0
   -0.7359  -10.8450   20.0542 C   0  0  0  0  0  0  0  0  0  0  0  0
    1.0240  -11.7443   18.6054 C   0  0  0  0  0  0  0  0  0  0  0  0
    2.6597   -8.7525   16.1422 C   0  0  0  0  0  0  0  0  0  0  0  0
   10.7697   -3.6382   19.8893 C   0  0  0  0  0  0  0  0  0  0  0  0
    1.5848  -10.7455   17.7777 C   0  0  0  0  0  0  0  0  0  0  0  0
    5.6785   -7.4130   15.7047 C   0  0  0  0  0  0  0  0  0  0  0  0
  1 19  2  0
  2 24  4  0
  2 28  4  0
  3 19  1  0
  4 26  4  0
  4 33  4  0
  5 20  4  0
  5 27  4  0
  6 18  4  0
  6 21  4  0
  7 13  4  0
  7 25  4  0
  8 16  4  0
  8 17  4  0
  9 14  4  0
  9 17  4  0
 10 14  4  0
 10 32  4  0
 11 20  4  0
 11 29  4  0
 11 30  1  0
 12 18  4  0
 12 23  4  0
 12 33  4  0
 13 14  4  0
 13 24  4  0
 15 28  4  0
 15 34  4  0
 16 21  1  0
 16 34  4  0
 17 28  4  0
 19 32  1  0
 21 23  4  0
 22 27  4  0
 22 29  4  0
 23 31  4  0
 25 32  4  0
 26 31  4  0
 30 33  1  0
M  END
$$$$

 Created by Python create_sdf_string function

 34 39  0  0  0  0  0  0  0  0999 V2000
   11.7748   -2.4134   21.4869 O   0  0  0  0  0  0  0  0  0  0  0  0
    8.4571   -5.0280   15.5489 C   0  0  0  0  0  0  0  0  0  0  0  0
   10.6373   -4.1527   22.1338 O   0  0  0  0  0  0  0  0  0  0  0  0
    0.8865  -10.1736   16.8062 N   0  0  0  0  0  0  0  0  0  0  0  0
    0.6363  -11.5685   22.3514 C   0  0  0  0  0  0  0  0  0  0  0  0
    4.9382   -9.8865   18.4135 C   0  0  0  0  0  0  0  0  0  0  0  0
   10.8301   -3.1290   17.5832 C   0  0  0  0  0  0  0  0  0  0  0  0
    6.7438   -7.4973   17.7359 C   0  0  0  0  0  0  0  0  0  0  0  0
    8.5781   -5.9390   18.1797 N   0  0  0  0  0  0  0  0  0  0  0  0
    9.9427   -4.7068   19.6371 C   0  0  0  0  0  0  0  0  0  0  0  0
    0.4794  -11.4482   19.9323 C   0  0  0  0  0  0  0  0  0  0  0  0
    2.8970  -10.2853   17.8533 C   0  0  0  0  0  0  0  0  0  0  0  0
    9.9066   -4.1176   17.2835 C   0  0  0  0  0  0  0  0  0  0  0  0
    9.4685   -4.9581   18.3697 C   0  0  0  0  0  0  0  0  0  0  0  0
    6.5959   -6.5143   15.2606 C   0  0  0  0  0  0  0  0  0  0  0  0
    5.7287   -7.9676   16.9587 C   0  0  0  0  0  0  0  0  0  0  0  0
    7.6332   -6.5041   17.3535 C   0  0  0  0  0  0  0  0  0  0  0  0
    3.8550  -10.6808   18.6840 N   0  0  0  0  0  0  0  0  0  0  0  0
   11.0986   -3.3658   21.2207 C   0  0  0  0  0  0  0  0  0  0  0  0
    1.1160  -11.8135   21.0849 C   0  0  0  0  0  0  0  0  0  0  0  0
    4.7306   -8.9915   17.4326 C   0  0  0  0  0  0  0  0  0  0  0  0
   -1.3063  -10.5114   21.2530 C   0  0  0  0  0  0  0  0  0  0  0  0
    3.4124   -9.2810   17.0553 N   0  0  0  0  0  0  0  0  0  0  0  0
    9.4002   -4.2777   15.9890 C   0  0  0  0  0  0  0  0  0  0  0  0
   11.2565   -2.8190   18.8531 C   0  0  0  0  0  0  0  0  0  0  0  0
    1.3860   -9.2081   16.0076 C   0  0  0  0  0  0  0  0  0  0  0  0
   -0.6049  -10.8692   22.4441 C   0  0  0  0  0  0  0  0  0  0  0  0
    7.5780   -5.9951   16.0165 C   0  0  0  0  0  0  0  0  0  0  0  0
   -0.7359  -10.8450   20.0542 C   0  0  0  0  0  0  0  0  0  0  0  0
    1.0240  -11.7443   18.6054 C   0  0  0  0  0  0  0  0  0  0  0  0
    2.6597   -8.7525   16.1422 C   0  0  0  0  0  0  0  0  0  0  0  0
   10.7697   -3.6382   19.8893 C   0  0  0  0  0  0  0  0  0  0  0  0
    1.5848  -10.7455   17.7777 C   0  0  0  0  0  0  0  0  0  0  0  0
    5.6785   -7.4130   15.7047 C   0  0  0  0  0  0  0  0  0  0  0  0
  1 19  2  0
  2 24  4  0
  2 28  4  0
  3 19  1  0
  4 26  4  0
  4 33  4  0
  5 20  4  0
  5 27  4  0
  6 18  4  0
  6 21  4  0
  7 13  4  0
  7 25  4  0
  8 16  4  0
  8 17  4  0
  9 14  4  0
  9 17  4  0
 10 14  4  0
 10 32  4  0
 11 20  4  0
 11 29  4  0
 11 30  1  0
 12 18  4  0
 12 23  4  0
 12 33  4  0
 13 14  4  0
 13 24  4  0
 15 28  4  0
 15 34  4  0
 16 21  1  0
 16 34  4  0
 17 28  4  0
 19 32  1  0
 21 23  4  0
 22 27  4  0
 22 29  4  0
 23 31  4  0
 25 32  4  0
 26 31  4  0
 30 33  1  0
M  END
$$$$

 Created by Python create_sdf_string function

 34 39  0  0  0  0  0  0  0  0999 V2000
   11.7748   -2.4134   21.4869 O   0  0  0  0  0  0  0  0  0  0  0  0
    8.4571   -5.0280   15.5489 C   0  0  0  0  0  0  0  0  0  0  0  0
   10.6373   -4.1527   22.1338 O   0  0  0  0  0  0  0  0  0  0  0  0
    0.8865  -10.1736   16.8062 N   0  0  0  0  0  0  0  0  0  0  0  0
    0.6363  -11.5685   22.3514 C   0  0  0  0  0  0  0  0  0  0  0  0
    4.9382   -9.8865   18.4135 C   0  0  0  0  0  0  0  0  0  0  0  0
   10.8301   -3.1290   17.5832 C   0  0  0  0  0  0  0  0  0  0  0  0
    6.7438   -7.4973   17.7359 C   0  0  0  0  0  0  0  0  0  0  0  0
    8.5781   -5.9390   18.1797 N   0  0  0  0  0  0  0  0  0  0  0  0
    9.9427   -4.7068   19.6371 C   0  0  0  0  0  0  0  0  0  0  0  0
    0.4794  -11.4482   19.9323 C   0  0  0  0  0  0  0  0  0  0  0  0
    2.8970  -10.2853   17.8533 C   0  0  0  0  0  0  0  0  0  0  0  0
    9.9066   -4.1176   17.2835 C   0  0  0  0  0  0  0  0  0  0  0  0
    9.4685   -4.9581   18.3697 C   0  0  0  0  0  0  0  0  0  0  0  0
    6.5959   -6.5143   15.2606 C   0  0  0  0  0  0  0  0  0  0  0  0
    5.7287   -7.9676   16.9587 C   0  0  0  0  0  0  0  0  0  0  0  0
    7.6332   -6.5041   17.3535 C   0  0  0  0  0  0  0  0  0  0  0  0
    3.8550  -10.6808   18.6840 N   0  0  0  0  0  0  0  0  0  0  0  0
   11.0986   -3.3658   21.2207 C   0  0  0  0  0  0  0  0  0  0  0  0
    1.1160  -11.8135   21.0849 C   0  0  0  0  0  0  0  0  0  0  0  0
    4.7306   -8.9915   17.4326 C   0  0  0  0  0  0  0  0  0  0  0  0
   -1.3063  -10.5114   21.2530 C   0  0  0  0  0  0  0  0  0  0  0  0
    3.4124   -9.2810   17.0553 N   0  0  0  0  0  0  0  0  0  0  0  0
    9.4002   -4.2777   15.9890 C   0  0  0  0  0  0  0  0  0  0  0  0
   11.2565   -2.8190   18.8531 C   0  0  0  0  0  0  0  0  0  0  0  0
    1.3860   -9.2081   16.0076 C   0  0  0  0  0  0  0  0  0  0  0  0
   -0.6049  -10.8692   22.4441 C   0  0  0  0  0  0  0  0  0  0  0  0
    7.5780   -5.9951   16.0165 C   0  0  0  0  0  0  0  0  0  0  0  0
   -0.7359  -10.8450   20.0542 C   0  0  0  0  0  0  0  0  0  0  0  0
    1.0240  -11.7443   18.6054 C   0  0  0  0  0  0  0  0  0  0  0  0
    2.6597   -8.7525   16.1422 C   0  0  0  0  0  0  0  0  0  0  0  0
   10.7697   -3.6382   19.8893 C   0  0  0  0  0  0  0  0  0  0  0  0
    1.5848  -10.7455   17.7777 C   0  0  0  0  0  0  0  0  0  0  0  0
    5.6785   -7.4130   15.7047 C   0  0  0  0  0  0  0  0  0  0  0  0
  1 19  2  0
  2 24  4  0
  2 28  4  0
  3 19  1  0
  4 26  4  0
  4 33  4  0
  5 20  4  0
  5 27  4  0
  6 18  4  0
  6 21  4  0
  7 13  4  0
  7 25  4  0
  8 16  4  0
  8 17  4  0
  9 14  4  0
  9 17  4  0
 10 14  4  0
 10 32  4  0
 11 20  4  0
 11 29  4  0
 11 30  1  0
 12 18  4  0
 12 23  4  0
 12 33  4  0
 13 14  4  0
 13 24  4  0
 15 28  4  0
 15 34  4  0
 16 21  1  0
 16 34  4  0
 17 28  4  0
 19 32  1  0
 21 23  4  0
 22 27  4  0
 22 29  4  0
 23 31  4  0
 25 32  4  0
 26 31  4  0
 30 33  1  0
M  END
$$$$

 Created by Python create_sdf_string function

 34 39  0  0  0  0  0  0  0  0999 V2000
   11.7748   -2.4134   21.4869 O   0  0  0  0  0  0  0  0  0  0  0  0
    8.4571   -5.0280   15.5489 C   0  0  0  0  0  0  0  0  0  0  0  0
   10.6373   -4.1527   22.1338 O   0  0  0  0  0  0  0  0  0  0  0  0
    0.8865  -10.1736   16.8062 N   0  0  0  0  0  0  0  0  0  0  0  0
    0.6363  -11.5685   22.3514 C   0  0  0  0  0  0  0  0  0  0  0  0
    4.9382   -9.8865   18.4135 C   0  0  0  0  0  0  0  0  0  0  0  0
   10.8301   -3.1290   17.5832 C   0  0  0  0  0  0  0  0  0  0  0  0
    6.7438   -7.4973   17.7359 C   0  0  0  0  0  0  0  0  0  0  0  0
    8.5781   -5.9390   18.1797 N   0  0  0  0  0  0  0  0  0  0  0  0
    9.9427   -4.7068   19.6371 C   0  0  0  0  0  0  0  0  0  0  0  0
    0.4794  -11.4482   19.9323 C   0  0  0  0  0  0  0  0  0  0  0  0
    2.8970  -10.2853   17.8533 C   0  0  0  0  0  0  0  0  0  0  0  0
    9.9066   -4.1176   17.2835 C   0  0  0  0  0  0  0  0  0  0  0  0
    9.4685   -4.9581   18.3697 C   0  0  0  0  0  0  0  0  0  0  0  0
    6.5959   -6.5143   15.2606 C   0  0  0  0  0  0  0  0  0  0  0  0
    5.7287   -7.9676   16.9587 C   0  0  0  0  0  0  0  0  0  0  0  0
    7.6332   -6.5041   17.3535 C   0  0  0  0  0  0  0  0  0  0  0  0
    3.8550  -10.6808   18.6840 N   0  0  0  0  0  0  0  0  0  0  0  0
   11.0986   -3.3658   21.2207 C   0  0  0  0  0  0  0  0  0  0  0  0
    1.1160  -11.8135   21.0849 C   0  0  0  0  0  0  0  0  0  0  0  0
    4.7306   -8.9915   17.4326 C   0  0  0  0  0  0  0  0  0  0  0  0
   -1.3063  -10.5114   21.2530 C   0  0  0  0  0  0  0  0  0  0  0  0
    3.4124   -9.2810   17.0553 N   0  0  0  0  0  0  0  0  0  0  0  0
    9.4002   -4.2777   15.9890 C   0  0  0  0  0  0  0  0  0  0  0  0
   11.2565   -2.8190   18.8531 C   0  0  0  0  0  0  0  0  0  0  0  0
    1.3860   -9.2081   16.0076 C   0  0  0  0  0  0  0  0  0  0  0  0
   -0.6049  -10.8692   22.4441 C   0  0  0  0  0  0  0  0  0  0  0  0
    7.5780   -5.9951   16.0165 C   0  0  0  0  0  0  0  0  0  0  0  0
   -0.7359  -10.8450   20.0542 C   0  0  0  0  0  0  0  0  0  0  0  0
    1.0240  -11.7443   18.6054 C   0  0  0  0  0  0  0  0  0  0  0  0
    2.6597   -8.7525   16.1422 C   0  0  0  0  0  0  0  0  0  0  0  0
   10.7697   -3.6382   19.8893 C   0  0  0  0  0  0  0  0  0  0  0  0
    1.5848  -10.7455   17.7777 C   0  0  0  0  0  0  0  0  0  0  0  0
    5.6785   -7.4130   15.7047 C   0  0  0  0  0  0  0  0  0  0  0  0
  1 19  2  0
  2 24  4  0
  2 28  4  0
  3 19  1  0
  4 26  4  0
  4 33  4  0
  5 20  4  0
  5 27  4  0
  6 18  4  0
  6 21  4  0
  7 13  4  0
  7 25  4  0
  8 16  4  0
  8 17  4  0
  9 14  4  0
  9 17  4  0
 10 14  4  0
 10 32  4  0
 11 20  4  0
 11 29  4  0
 11 30  1  0
 12 18  4  0
 12 23  4  0
 12 33  4  0
 13 14  4  0
 13 24  4  0
 15 28  4  0
 15 34  4  0
 16 21  1  0
 16 34  4  0
 17 28  4  0
 19 32  1  0
 21 23  4  0
 22 27  4  0
 22 29  4  0
 23 31  4  0
 25 32  4  0
 26 31  4  0
 30 33  1  0
M  END
$$$$

 Created by Python create_sdf_string function

 34 39  0  0  0  0  0  0  0  0999 V2000
   11.7748   -2.4134   21.4869 O   0  0  0  0  0  0  0  0  0  0  0  0
    8.4571   -5.0280   15.5489 C   0  0  0  0  0  0  0  0  0  0  0  0
   10.6373   -4.1527   22.1338 O   0  0  0  0  0  0  0  0  0  0  0  0
    0.8865  -10.1736   16.8062 N   0  0  0  0  0  0  0  0  0  0  0  0
    0.6363  -11.5685   22.3514 C   0  0  0  0  0  0  0  0  0  0  0  0
    4.9382   -9.8865   18.4135 C   0  0  0  0  0  0  0  0  0  0  0  0
   10.8301   -3.1290   17.5832 C   0  0  0  0  0  0  0  0  0  0  0  0
    6.7438   -7.4973   17.7359 C   0  0  0  0  0  0  0  0  0  0  0  0
    8.5781   -5.9390   18.1797 N   0  0  0  0  0  0  0  0  0  0  0  0
    9.9427   -4.7068   19.6371 C   0  0  0  0  0  0  0  0  0  0  0  0
    0.4794  -11.4482   19.9323 C   0  0  0  0  0  0  0  0  0  0  0  0
    2.8970  -10.2853   17.8533 C   0  0  0  0  0  0  0  0  0  0  0  0
    9.9066   -4.1176   17.2835 C   0  0  0  0  0  0  0  0  0  0  0  0
    9.4685   -4.9581   18.3697 C   0  0  0  0  0  0  0  0  0  0  0  0
    6.5959   -6.5143   15.2606 C   0  0  0  0  0  0  0  0  0  0  0  0
    5.7287   -7.9676   16.9587 C   0  0  0  0  0  0  0  0  0  0  0  0
    7.6332   -6.5041   17.3535 C   0  0  0  0  0  0  0  0  0  0  0  0
    3.8550  -10.6808   18.6840 N   0  0  0  0  0  0  0  0  0  0  0  0
   11.0986   -3.3658   21.2207 C   0  0  0  0  0  0  0  0  0  0  0  0
    1.1160  -11.8135   21.0849 C   0  0  0  0  0  0  0  0  0  0  0  0
    4.7306   -8.9915   17.4326 C   0  0  0  0  0  0  0  0  0  0  0  0
   -1.3063  -10.5114   21.2530 C   0  0  0  0  0  0  0  0  0  0  0  0
    3.4124   -9.2810   17.0553 N   0  0  0  0  0  0  0  0  0  0  0  0
    9.4002   -4.2777   15.9890 C   0  0  0  0  0  0  0  0  0  0  0  0
   11.2565   -2.8190   18.8531 C   0  0  0  0  0  0  0  0  0  0  0  0
    1.3860   -9.2081   16.0076 C   0  0  0  0  0  0  0  0  0  0  0  0
   -0.6049  -10.8692   22.4441 C   0  0  0  0  0  0  0  0  0  0  0  0
    7.5780   -5.9951   16.0165 C   0  0  0  0  0  0  0  0  0  0  0  0
   -0.7359  -10.8450   20.0542 C   0  0  0  0  0  0  0  0  0  0  0  0
    1.0240  -11.7443   18.6054 C   0  0  0  0  0  0  0  0  0  0  0  0
    2.6597   -8.7525   16.1422 C   0  0  0  0  0  0  0  0  0  0  0  0
   10.7697   -3.6382   19.8893 C   0  0  0  0  0  0  0  0  0  0  0  0
    1.5848  -10.7455   17.7777 C   0  0  0  0  0  0  0  0  0  0  0  0
    5.6785   -7.4130   15.7047 C   0  0  0  0  0  0  0  0  0  0  0  0
  1 19  2  0
  2 24  4  0
  2 28  4  0
  3 19  1  0
  4 26  4  0
  4 33  4  0
  5 20  4  0
  5 27  4  0
  6 18  4  0
  6 21  4  0
  7 13  4  0
  7 25  4  0
  8 16  4  0
  8 17  4  0
  9 14  4  0
  9 17  4  0
 10 14  4  0
 10 32  4  0
 11 20  4  0
 11 29  4  0
 11 30  1  0
 12 18  4  0
 12 23  4  0
 12 33  4  0
 13 14  4  0
 13 24  4  0
 15 28  4  0
 15 34  4  0
 16 21  1  0
 16 34  4  0
 17 28  4  0
 19 32  1  0
 21 23  4  0
 22 27  4  0
 22 29  4  0
 23 31  4  0
 25 32  4  0
 26 31  4  0
 30 33  1  0
M  END
$$$$

 Created by Python create_sdf_string function

 34 39  0  0  0  0  0  0  0  0999 V2000
   11.7748   -2.4134   21.4869 O   0  0  0  0  0  0  0  0  0  0  0  0
    8.4571   -5.0280   15.5489 C   0  0  0  0  0  0  0  0  0  0  0  0
   10.6373   -4.1527   22.1338 O   0  0  0  0  0  0  0  0  0  0  0  0
    0.8865  -10.1736   16.8062 N   0  0  0  0  0  0  0  0  0  0  0  0
    0.6363  -11.5685   22.3514 C   0  0  0  0  0  0  0  0  0  0  0  0
    4.9382   -9.8865   18.4135 C   0  0  0  0  0  0  0  0  0  0  0  0
   10.8301   -3.1290   17.5832 C   0  0  0  0  0  0  0  0  0  0  0  0
    6.7438   -7.4973   17.7359 C   0  0  0  0  0  0  0  0  0  0  0  0
    8.5781   -5.9390   18.1797 N   0  0  0  0  0  0  0  0  0  0  0  0
    9.9427   -4.7068   19.6371 C   0  0  0  0  0  0  0  0  0  0  0  0
    0.4794  -11.4482   19.9323 C   0  0  0  0  0  0  0  0  0  0  0  0
    2.8970  -10.2853   17.8533 C   0  0  0  0  0  0  0  0  0  0  0  0
    9.9066   -4.1176   17.2835 C   0  0  0  0  0  0  0  0  0  0  0  0
    9.4685   -4.9581   18.3697 C   0  0  0  0  0  0  0  0  0  0  0  0
    6.5959   -6.5143   15.2606 C   0  0  0  0  0  0  0  0  0  0  0  0
    5.7287   -7.9676   16.9587 C   0  0  0  0  0  0  0  0  0  0  0  0
    7.6332   -6.5041   17.3535 C   0  0  0  0  0  0  0  0  0  0  0  0
    3.8550  -10.6808   18.6840 N   0  0  0  0  0  0  0  0  0  0  0  0
   11.0986   -3.3658   21.2207 C   0  0  0  0  0  0  0  0  0  0  0  0
    1.1160  -11.8135   21.0849 C   0  0  0  0  0  0  0  0  0  0  0  0
    4.7306   -8.9915   17.4326 C   0  0  0  0  0  0  0  0  0  0  0  0
   -1.3063  -10.5114   21.2530 C   0  0  0  0  0  0  0  0  0  0  0  0
    3.4124   -9.2810   17.0553 N   0  0  0  0  0  0  0  0  0  0  0  0
    9.4002   -4.2777   15.9890 C   0  0  0  0  0  0  0  0  0  0  0  0
   11.2565   -2.8190   18.8531 C   0  0  0  0  0  0  0  0  0  0  0  0
    1.3860   -9.2081   16.0076 C   0  0  0  0  0  0  0  0  0  0  0  0
   -0.6049  -10.8692   22.4441 C   0  0  0  0  0  0  0  0  0  0  0  0
    7.5780   -5.9951   16.0165 C   0  0  0  0  0  0  0  0  0  0  0  0
   -0.7359  -10.8450   20.0542 C   0  0  0  0  0  0  0  0  0  0  0  0
    1.0240  -11.7443   18.6054 C   0  0  0  0  0  0  0  0  0  0  0  0
    2.6597   -8.7525   16.1422 C   0  0  0  0  0  0  0  0  0  0  0  0
   10.7697   -3.6382   19.8893 C   0  0  0  0  0  0  0  0  0  0  0  0
    1.5848  -10.7455   17.7777 C   0  0  0  0  0  0  0  0  0  0  0  0
    5.6785   -7.4130   15.7047 C   0  0  0  0  0  0  0  0  0  0  0  0
  1 19  2  0
  2 24  4  0
  2 28  4  0
  3 19  1  0
  4 26  4  0
  4 33  4  0
  5 20  4  0
  5 27  4  0
  6 18  4  0
  6 21  4  0
  7 13  4  0
  7 25  4  0
  8 16  4  0
  8 17  4  0
  9 14  4  0
  9 17  4  0
 10 14  4  0
 10 32  4  0
 11 20  4  0
 11 29  4  0
 11 30  1  0
 12 18  4  0
 12 23  4  0
 12 33  4  0
 13 14  4  0
 13 24  4  0
 15 28  4  0
 15 34  4  0
 16 21  1  0
 16 34  4  0
 17 28  4  0
 19 32  1  0
 21 23  4  0
 22 27  4  0
 22 29  4  0
 23 31  4  0
 25 32  4  0
 26 31  4  0
 30 33  1  0
M  END
$$$$

 Created by Python create_sdf_string function

 34 39  0  0  0  0  0  0  0  0999 V2000
   11.7748   -2.4134   21.4869 O   0  0  0  0  0  0  0  0  0  0  0  0
    8.4571   -5.0280   15.5489 C   0  0  0  0  0  0  0  0  0  0  0  0
   10.6373   -4.1527   22.1338 O   0  0  0  0  0  0  0  0  0  0  0  0
    0.8865  -10.1736   16.8062 N   0  0  0  0  0  0  0  0  0  0  0  0
    0.6363  -11.5685   22.3514 C   0  0  0  0  0  0  0  0  0  0  0  0
    4.9382   -9.8865   18.4135 C   0  0  0  0  0  0  0  0  0  0  0  0
   10.8301   -3.1290   17.5832 C   0  0  0  0  0  0  0  0  0  0  0  0
    6.7438   -7.4973   17.7359 C   0  0  0  0  0  0  0  0  0  0  0  0
    8.5781   -5.9390   18.1797 N   0  0  0  0  0  0  0  0  0  0  0  0
    9.9427   -4.7068   19.6371 C   0  0  0  0  0  0  0  0  0  0  0  0
    0.4794  -11.4482   19.9323 C   0  0  0  0  0  0  0  0  0  0  0  0
    2.8970  -10.2853   17.8533 C   0  0  0  0  0  0  0  0  0  0  0  0
    9.9066   -4.1176   17.2835 C   0  0  0  0  0  0  0  0  0  0  0  0
    9.4685   -4.9581   18.3697 C   0  0  0  0  0  0  0  0  0  0  0  0
    6.5959   -6.5143   15.2606 C   0  0  0  0  0  0  0  0  0  0  0  0
    5.7287   -7.9676   16.9587 C   0  0  0  0  0  0  0  0  0  0  0  0
    7.6332   -6.5041   17.3535 C   0  0  0  0  0  0  0  0  0  0  0  0
    3.8550  -10.6808   18.6840 N   0  0  0  0  0  0  0  0  0  0  0  0
   11.0986   -3.3658   21.2207 C   0  0  0  0  0  0  0  0  0  0  0  0
    1.1160  -11.8135   21.0849 C   0  0  0  0  0  0  0  0  0  0  0  0
    4.7306   -8.9915   17.4326 C   0  0  0  0  0  0  0  0  0  0  0  0
   -1.3063  -10.5114   21.2530 C   0  0  0  0  0  0  0  0  0  0  0  0
    3.4124   -9.2810   17.0553 N   0  0  0  0  0  0  0  0  0  0  0  0
    9.4002   -4.2777   15.9890 C   0  0  0  0  0  0  0  0  0  0  0  0
   11.2565   -2.8190   18.8531 C   0  0  0  0  0  0  0  0  0  0  0  0
    1.3860   -9.2081   16.0076 C   0  0  0  0  0  0  0  0  0  0  0  0
   -0.6049  -10.8692   22.4441 C   0  0  0  0  0  0  0  0  0  0  0  0
    7.5780   -5.9951   16.0165 C   0  0  0  0  0  0  0  0  0  0  0  0
   -0.7359  -10.8450   20.0542 C   0  0  0  0  0  0  0  0  0  0  0  0
    1.0240  -11.7443   18.6054 C   0  0  0  0  0  0  0  0  0  0  0  0
    2.6597   -8.7525   16.1422 C   0  0  0  0  0  0  0  0  0  0  0  0
   10.7697   -3.6382   19.8893 C   0  0  0  0  0  0  0  0  0  0  0  0
    1.5848  -10.7455   17.7777 C   0  0  0  0  0  0  0  0  0  0  0  0
    5.6785   -7.4130   15.7047 C   0  0  0  0  0  0  0  0  0  0  0  0
  1 19  2  0
  2 24  4  0
  2 28  4  0
  3 19  1  0
  4 26  4  0
  4 33  4  0
  5 20  4  0
  5 27  4  0
  6 18  4  0
  6 21  4  0
  7 13  4  0
  7 25  4  0
  8 16  4  0
  8 17  4  0
  9 14  4  0
  9 17  4  0
 10 14  4  0
 10 32  4  0
 11 20  4  0
 11 29  4  0
 11 30  1  0
 12 18  4  0
 12 23  4  0
 12 33  4  0
 13 14  4  0
 13 24  4  0
 15 28  4  0
 15 34  4  0
 16 21  1  0
 16 34  4  0
 17 28  4  0
 19 32  1  0
 21 23  4  0
 22 27  4  0
 22 29  4  0
 23 31  4  0
 25 32  4  0
 26 31  4  0
 30 33  1  0
M  END
$$$$

 Created by Python create_sdf_string function

 34 39  0  0  0  0  0  0  0  0999 V2000
   11.7748   -2.4134   21.4869 O   0  0  0  0  0  0  0  0  0  0  0  0
    8.4571   -5.0280   15.5489 C   0  0  0  0  0  0  0  0  0  0  0  0
   10.6373   -4.1527   22.1338 O   0  0  0  0  0  0  0  0  0  0  0  0
    0.8865  -10.1736   16.8062 N   0  0  0  0  0  0  0  0  0  0  0  0
    0.6363  -11.5685   22.3514 C   0  0  0  0  0  0  0  0  0  0  0  0
    4.9382   -9.8865   18.4135 C   0  0  0  0  0  0  0  0  0  0  0  0
   10.8301   -3.1290   17.5832 C   0  0  0  0  0  0  0  0  0  0  0  0
    6.7438   -7.4973   17.7359 C   0  0  0  0  0  0  0  0  0  0  0  0
    8.5781   -5.9390   18.1797 N   0  0  0  0  0  0  0  0  0  0  0  0
    9.9427   -4.7068   19.6371 C   0  0  0  0  0  0  0  0  0  0  0  0
    0.4794  -11.4482   19.9323 C   0  0  0  0  0  0  0  0  0  0  0  0
    2.8970  -10.2853   17.8533 C   0  0  0  0  0  0  0  0  0  0  0  0
    9.9066   -4.1176   17.2835 C   0  0  0  0  0  0  0  0  0  0  0  0
    9.4685   -4.9581   18.3697 C   0  0  0  0  0  0  0  0  0  0  0  0
    6.5959   -6.5143   15.2606 C   0  0  0  0  0  0  0  0  0  0  0  0
    5.7287   -7.9676   16.9587 C   0  0  0  0  0  0  0  0  0  0  0  0
    7.6332   -6.5041   17.3535 C   0  0  0  0  0  0  0  0  0  0  0  0
    3.8550  -10.6808   18.6840 N   0  0  0  0  0  0  0  0  0  0  0  0
   11.0986   -3.3658   21.2207 C   0  0  0  0  0  0  0  0  0  0  0  0
    1.1160  -11.8135   21.0849 C   0  0  0  0  0  0  0  0  0  0  0  0
    4.7306   -8.9915   17.4326 C   0  0  0  0  0  0  0  0  0  0  0  0
   -1.3063  -10.5114   21.2530 C   0  0  0  0  0  0  0  0  0  0  0  0
    3.4124   -9.2810   17.0553 N   0  0  0  0  0  0  0  0  0  0  0  0
    9.4002   -4.2777   15.9890 C   0  0  0  0  0  0  0  0  0  0  0  0
   11.2565   -2.8190   18.8531 C   0  0  0  0  0  0  0  0  0  0  0  0
    1.3860   -9.2081   16.0076 C   0  0  0  0  0  0  0  0  0  0  0  0
   -0.6049  -10.8692   22.4441 C   0  0  0  0  0  0  0  0  0  0  0  0
    7.5780   -5.9951   16.0165 C   0  0  0  0  0  0  0  0  0  0  0  0
   -0.7359  -10.8450   20.0542 C   0  0  0  0  0  0  0  0  0  0  0  0
    1.0240  -11.7443   18.6054 C   0  0  0  0  0  0  0  0  0  0  0  0
    2.6597   -8.7525   16.1422 C   0  0  0  0  0  0  0  0  0  0  0  0
   10.7697   -3.6382   19.8893 C   0  0  0  0  0  0  0  0  0  0  0  0
    1.5848  -10.7455   17.7777 C   0  0  0  0  0  0  0  0  0  0  0  0
    5.6785   -7.4130   15.7047 C   0  0  0  0  0  0  0  0  0  0  0  0
  1 19  2  0
  2 24  4  0
  2 28  4  0
  3 19  1  0
  4 26  4  0
  4 33  4  0
  5 20  4  0
  5 27  4  0
  6 18  4  0
  6 21  4  0
  7 13  4  0
  7 25  4  0
  8 16  4  0
  8 17  4  0
  9 14  4  0
  9 17  4  0
 10 14  4  0
 10 32  4  0
 11 20  4  0
 11 29  4  0
 11 30  1  0
 12 18  4  0
 12 23  4  0
 12 33  4  0
 13 14  4  0
 13 24  4  0
 15 28  4  0
 15 34  4  0
 16 21  1  0
 16 34  4  0
 17 28  4  0
 19 32  1  0
 21 23  4  0
 22 27  4  0
 22 29  4  0
 23 31  4  0
 25 32  4  0
 26 31  4  0
 30 33  1  0
M  END
$$$$

 Created by Python create_sdf_string function

 34 39  0  0  0  0  0  0  0  0999 V2000
   11.7748   -2.4134   21.4869 O   0  0  0  0  0  0  0  0  0  0  0  0
    8.4571   -5.0280   15.5489 C   0  0  0  0  0  0  0  0  0  0  0  0
   10.6373   -4.1527   22.1338 O   0  0  0  0  0  0  0  0  0  0  0  0
    0.8865  -10.1736   16.8062 N   0  0  0  0  0  0  0  0  0  0  0  0
    0.6363  -11.5685   22.3514 C   0  0  0  0  0  0  0  0  0  0  0  0
    4.9382   -9.8865   18.4135 C   0  0  0  0  0  0  0  0  0  0  0  0
   10.8301   -3.1290   17.5832 C   0  0  0  0  0  0  0  0  0  0  0  0
    6.7438   -7.4973   17.7359 C   0  0  0  0  0  0  0  0  0  0  0  0
    8.5781   -5.9390   18.1797 N   0  0  0  0  0  0  0  0  0  0  0  0
    9.9427   -4.7068   19.6371 C   0  0  0  0  0  0  0  0  0  0  0  0
    0.4794  -11.4482   19.9323 C   0  0  0  0  0  0  0  0  0  0  0  0
    2.8970  -10.2853   17.8533 C   0  0  0  0  0  0  0  0  0  0  0  0
    9.9066   -4.1176   17.2835 C   0  0  0  0  0  0  0  0  0  0  0  0
    9.4685   -4.9581   18.3697 C   0  0  0  0  0  0  0  0  0  0  0  0
    6.5959   -6.5143   15.2606 C   0  0  0  0  0  0  0  0  0  0  0  0
    5.7287   -7.9676   16.9587 C   0  0  0  0  0  0  0  0  0  0  0  0
    7.6332   -6.5041   17.3535 C   0  0  0  0  0  0  0  0  0  0  0  0
    3.8550  -10.6808   18.6840 N   0  0  0  0  0  0  0  0  0  0  0  0
   11.0986   -3.3658   21.2207 C   0  0  0  0  0  0  0  0  0  0  0  0
    1.1160  -11.8135   21.0849 C   0  0  0  0  0  0  0  0  0  0  0  0
    4.7306   -8.9915   17.4326 C   0  0  0  0  0  0  0  0  0  0  0  0
   -1.3063  -10.5114   21.2530 C   0  0  0  0  0  0  0  0  0  0  0  0
    3.4124   -9.2810   17.0553 N   0  0  0  0  0  0  0  0  0  0  0  0
    9.4002   -4.2777   15.9890 C   0  0  0  0  0  0  0  0  0  0  0  0
   11.2565   -2.8190   18.8531 C   0  0  0  0  0  0  0  0  0  0  0  0
    1.3860   -9.2081   16.0076 C   0  0  0  0  0  0  0  0  0  0  0  0
   -0.6049  -10.8692   22.4441 C   0  0  0  0  0  0  0  0  0  0  0  0
    7.5780   -5.9951   16.0165 C   0  0  0  0  0  0  0  0  0  0  0  0
   -0.7359  -10.8450   20.0542 C   0  0  0  0  0  0  0  0  0  0  0  0
    1.0240  -11.7443   18.6054 C   0  0  0  0  0  0  0  0  0  0  0  0
    2.6597   -8.7525   16.1422 C   0  0  0  0  0  0  0  0  0  0  0  0
   10.7697   -3.6382   19.8893 C   0  0  0  0  0  0  0  0  0  0  0  0
    1.5848  -10.7455   17.7777 C   0  0  0  0  0  0  0  0  0  0  0  0
    5.6785   -7.4130   15.7047 C   0  0  0  0  0  0  0  0  0  0  0  0
  1 19  2  0
  2 24  4  0
  2 28  4  0
  3 19  1  0
  4 26  4  0
  4 33  4  0
  5 20  4  0
  5 27  4  0
  6 18  4  0
  6 21  4  0
  7 13  4  0
  7 25  4  0
  8 16  4  0
  8 17  4  0
  9 14  4  0
  9 17  4  0
 10 14  4  0
 10 32  4  0
 11 20  4  0
 11 29  4  0
 11 30  1  0
 12 18  4  0
 12 23  4  0
 12 33  4  0
 13 14  4  0
 13 24  4  0
 15 28  4  0
 15 34  4  0
 16 21  1  0
 16 34  4  0
 17 28  4  0
 19 32  1  0
 21 23  4  0
 22 27  4  0
 22 29  4  0
 23 31  4  0
 25 32  4  0
 26 31  4  0
 30 33  1  0
M  END
$$$$

 Created by Python create_sdf_string function

 34 39  0  0  0  0  0  0  0  0999 V2000
   11.7748   -2.4134   21.4869 O   0  0  0  0  0  0  0  0  0  0  0  0
    8.4571   -5.0280   15.5489 C   0  0  0  0  0  0  0  0  0  0  0  0
   10.6373   -4.1527   22.1338 O   0  0  0  0  0  0  0  0  0  0  0  0
    0.8865  -10.1736   16.8062 N   0  0  0  0  0  0  0  0  0  0  0  0
    0.6363  -11.5685   22.3514 C   0  0  0  0  0  0  0  0  0  0  0  0
    4.9382   -9.8865   18.4135 C   0  0  0  0  0  0  0  0  0  0  0  0
   10.8301   -3.1290   17.5832 C   0  0  0  0  0  0  0  0  0  0  0  0
    6.7438   -7.4973   17.7359 C   0  0  0  0  0  0  0  0  0  0  0  0
    8.5781   -5.9390   18.1797 N   0  0  0  0  0  0  0  0  0  0  0  0
    9.9427   -4.7068   19.6371 C   0  0  0  0  0  0  0  0  0  0  0  0
    0.4794  -11.4482   19.9323 C   0  0  0  0  0  0  0  0  0  0  0  0
    2.8970  -10.2853   17.8533 C   0  0  0  0  0  0  0  0  0  0  0  0
    9.9066   -4.1176   17.2835 C   0  0  0  0  0  0  0  0  0  0  0  0
    9.4685   -4.9581   18.3697 C   0  0  0  0  0  0  0  0  0  0  0  0
    6.5959   -6.5143   15.2606 C   0  0  0  0  0  0  0  0  0  0  0  0
    5.7287   -7.9676   16.9587 C   0  0  0  0  0  0  0  0  0  0  0  0
    7.6332   -6.5041   17.3535 C   0  0  0  0  0  0  0  0  0  0  0  0
    3.8550  -10.6808   18.6840 N   0  0  0  0  0  0  0  0  0  0  0  0
   11.0986   -3.3658   21.2207 C   0  0  0  0  0  0  0  0  0  0  0  0
    1.1160  -11.8135   21.0849 C   0  0  0  0  0  0  0  0  0  0  0  0
    4.7306   -8.9915   17.4326 C   0  0  0  0  0  0  0  0  0  0  0  0
   -1.3063  -10.5114   21.2530 C   0  0  0  0  0  0  0  0  0  0  0  0
    3.4124   -9.2810   17.0553 N   0  0  0  0  0  0  0  0  0  0  0  0
    9.4002   -4.2777   15.9890 C   0  0  0  0  0  0  0  0  0  0  0  0
   11.2565   -2.8190   18.8531 C   0  0  0  0  0  0  0  0  0  0  0  0
    1.3860   -9.2081   16.0076 C   0  0  0  0  0  0  0  0  0  0  0  0
   -0.6049  -10.8692   22.4441 C   0  0  0  0  0  0  0  0  0  0  0  0
    7.5780   -5.9951   16.0165 C   0  0  0  0  0  0  0  0  0  0  0  0
   -0.7359  -10.8450   20.0542 C   0  0  0  0  0  0  0  0  0  0  0  0
    1.0240  -11.7443   18.6054 C   0  0  0  0  0  0  0  0  0  0  0  0
    2.6597   -8.7525   16.1422 C   0  0  0  0  0  0  0  0  0  0  0  0
   10.7697   -3.6382   19.8893 C   0  0  0  0  0  0  0  0  0  0  0  0
    1.5848  -10.7455   17.7777 C   0  0  0  0  0  0  0  0  0  0  0  0
    5.6785   -7.4130   15.7047 C   0  0  0  0  0  0  0  0  0  0  0  0
  1 19  2  0
  2 24  4  0
  2 28  4  0
  3 19  1  0
  4 26  4  0
  4 33  4  0
  5 20  4  0
  5 27  4  0
  6 18  4  0
  6 21  4  0
  7 13  4  0
  7 25  4  0
  8 16  4  0
  8 17  4  0
  9 14  4  0
  9 17  4  0
 10 14  4  0
 10 32  4  0
 11 20  4  0
 11 29  4  0
 11 30  1  0
 12 18  4  0
 12 23  4  0
 12 33  4  0
 13 14  4  0
 13 24  4  0
 15 28  4  0
 15 34  4  0
 16 21  1  0
 16 34  4  0
 17 28  4  0
 19 32  1  0
 21 23  4  0
 22 27  4  0
 22 29  4  0
 23 31  4  0
 25 32  4  0
 26 31  4  0
 30 33  1  0
M  END
$$$$

 Created by Python create_sdf_string function

 34 39  0  0  0  0  0  0  0  0999 V2000
   11.7748   -2.4134   21.4869 O   0  0  0  0  0  0  0  0  0  0  0  0
    8.4571   -5.0280   15.5489 C   0  0  0  0  0  0  0  0  0  0  0  0
   10.6373   -4.1527   22.1338 O   0  0  0  0  0  0  0  0  0  0  0  0
    0.8865  -10.1736   16.8062 N   0  0  0  0  0  0  0  0  0  0  0  0
    0.6363  -11.5685   22.3514 C   0  0  0  0  0  0  0  0  0  0  0  0
    4.9382   -9.8865   18.4135 C   0  0  0  0  0  0  0  0  0  0  0  0
   10.8301   -3.1290   17.5832 C   0  0  0  0  0  0  0  0  0  0  0  0
    6.7438   -7.4973   17.7359 C   0  0  0  0  0  0  0  0  0  0  0  0
    8.5781   -5.9390   18.1797 N   0  0  0  0  0  0  0  0  0  0  0  0
    9.9427   -4.7068   19.6371 C   0  0  0  0  0  0  0  0  0  0  0  0
    0.4794  -11.4482   19.9323 C   0  0  0  0  0  0  0  0  0  0  0  0
    2.8970  -10.2853   17.8533 C   0  0  0  0  0  0  0  0  0  0  0  0
    9.9066   -4.1176   17.2835 C   0  0  0  0  0  0  0  0  0  0  0  0
    9.4685   -4.9581   18.3697 C   0  0  0  0  0  0  0  0  0  0  0  0
    6.5959   -6.5143   15.2606 C   0  0  0  0  0  0  0  0  0  0  0  0
    5.7287   -7.9676   16.9587 C   0  0  0  0  0  0  0  0  0  0  0  0
    7.6332   -6.5041   17.3535 C   0  0  0  0  0  0  0  0  0  0  0  0
    3.8550  -10.6808   18.6840 N   0  0  0  0  0  0  0  0  0  0  0  0
   11.0986   -3.3658   21.2207 C   0  0  0  0  0  0  0  0  0  0  0  0
    1.1160  -11.8135   21.0849 C   0  0  0  0  0  0  0  0  0  0  0  0
    4.7306   -8.9915   17.4326 C   0  0  0  0  0  0  0  0  0  0  0  0
   -1.3063  -10.5114   21.2530 C   0  0  0  0  0  0  0  0  0  0  0  0
    3.4124   -9.2810   17.0553 N   0  0  0  0  0  0  0  0  0  0  0  0
    9.4002   -4.2777   15.9890 C   0  0  0  0  0  0  0  0  0  0  0  0
   11.2565   -2.8190   18.8531 C   0  0  0  0  0  0  0  0  0  0  0  0
    1.3860   -9.2081   16.0076 C   0  0  0  0  0  0  0  0  0  0  0  0
   -0.6049  -10.8692   22.4441 C   0  0  0  0  0  0  0  0  0  0  0  0
    7.5780   -5.9951   16.0165 C   0  0  0  0  0  0  0  0  0  0  0  0
   -0.7359  -10.8450   20.0542 C   0  0  0  0  0  0  0  0  0  0  0  0
    1.0240  -11.7443   18.6054 C   0  0  0  0  0  0  0  0  0  0  0  0
    2.6597   -8.7525   16.1422 C   0  0  0  0  0  0  0  0  0  0  0  0
   10.7697   -3.6382   19.8893 C   0  0  0  0  0  0  0  0  0  0  0  0
    1.5848  -10.7455   17.7777 C   0  0  0  0  0  0  0  0  0  0  0  0
    5.6785   -7.4130   15.7047 C   0  0  0  0  0  0  0  0  0  0  0  0
  1 19  2  0
  2 24  4  0
  2 28  4  0
  3 19  1  0
  4 26  4  0
  4 33  4  0
  5 20  4  0
  5 27  4  0
  6 18  4  0
  6 21  4  0
  7 13  4  0
  7 25  4  0
  8 16  4  0
  8 17  4  0
  9 14  4  0
  9 17  4  0
 10 14  4  0
 10 32  4  0
 11 20  4  0
 11 29  4  0
 11 30  1  0
 12 18  4  0
 12 23  4  0
 12 33  4  0
 13 14  4  0
 13 24  4  0
 15 28  4  0
 15 34  4  0
 16 21  1  0
 16 34  4  0
 17 28  4  0
 19 32  1  0
 21 23  4  0
 22 27  4  0
 22 29  4  0
 23 31  4  0
 25 32  4  0
 26 31  4  0
 30 33  1  0
M  END
$$$$

 Created by Python create_sdf_string function

 34 39  0  0  0  0  0  0  0  0999 V2000
   11.7748   -2.4134   21.4869 O   0  0  0  0  0  0  0  0  0  0  0  0
    8.4571   -5.0280   15.5489 C   0  0  0  0  0  0  0  0  0  0  0  0
   10.6373   -4.1527   22.1338 O   0  0  0  0  0  0  0  0  0  0  0  0
    0.8865  -10.1736   16.8062 N   0  0  0  0  0  0  0  0  0  0  0  0
    0.6363  -11.5685   22.3514 C   0  0  0  0  0  0  0  0  0  0  0  0
    4.9382   -9.8865   18.4135 C   0  0  0  0  0  0  0  0  0  0  0  0
   10.8301   -3.1290   17.5832 C   0  0  0  0  0  0  0  0  0  0  0  0
    6.7438   -7.4973   17.7359 C   0  0  0  0  0  0  0  0  0  0  0  0
    8.5781   -5.9390   18.1797 N   0  0  0  0  0  0  0  0  0  0  0  0
    9.9427   -4.7068   19.6371 C   0  0  0  0  0  0  0  0  0  0  0  0
    0.4794  -11.4482   19.9323 C   0  0  0  0  0  0  0  0  0  0  0  0
    2.8970  -10.2853   17.8533 C   0  0  0  0  0  0  0  0  0  0  0  0
    9.9066   -4.1176   17.2835 C   0  0  0  0  0  0  0  0  0  0  0  0
    9.4685   -4.9581   18.3697 C   0  0  0  0  0  0  0  0  0  0  0  0
    6.5959   -6.5143   15.2606 C   0  0  0  0  0  0  0  0  0  0  0  0
    5.7287   -7.9676   16.9587 C   0  0  0  0  0  0  0  0  0  0  0  0
    7.6332   -6.5041   17.3535 C   0  0  0  0  0  0  0  0  0  0  0  0
    3.8550  -10.6808   18.6840 N   0  0  0  0  0  0  0  0  0  0  0  0
   11.0986   -3.3658   21.2207 C   0  0  0  0  0  0  0  0  0  0  0  0
    1.1160  -11.8135   21.0849 C   0  0  0  0  0  0  0  0  0  0  0  0
    4.7306   -8.9915   17.4326 C   0  0  0  0  0  0  0  0  0  0  0  0
   -1.3063  -10.5114   21.2530 C   0  0  0  0  0  0  0  0  0  0  0  0
    3.4124   -9.2810   17.0553 N   0  0  0  0  0  0  0  0  0  0  0  0
    9.4002   -4.2777   15.9890 C   0  0  0  0  0  0  0  0  0  0  0  0
   11.2565   -2.8190   18.8531 C   0  0  0  0  0  0  0  0  0  0  0  0
    1.3860   -9.2081   16.0076 C   0  0  0  0  0  0  0  0  0  0  0  0
   -0.6049  -10.8692   22.4441 C   0  0  0  0  0  0  0  0  0  0  0  0
    7.5780   -5.9951   16.0165 C   0  0  0  0  0  0  0  0  0  0  0  0
   -0.7359  -10.8450   20.0542 C   0  0  0  0  0  0  0  0  0  0  0  0
    1.0240  -11.7443   18.6054 C   0  0  0  0  0  0  0  0  0  0  0  0
    2.6597   -8.7525   16.1422 C   0  0  0  0  0  0  0  0  0  0  0  0
   10.7697   -3.6382   19.8893 C   0  0  0  0  0  0  0  0  0  0  0  0
    1.5848  -10.7455   17.7777 C   0  0  0  0  0  0  0  0  0  0  0  0
    5.6785   -7.4130   15.7047 C   0  0  0  0  0  0  0  0  0  0  0  0
  1 19  2  0
  2 24  4  0
  2 28  4  0
  3 19  1  0
  4 26  4  0
  4 33  4  0
  5 20  4  0
  5 27  4  0
  6 18  4  0
  6 21  4  0
  7 13  4  0
  7 25  4  0
  8 16  4  0
  8 17  4  0
  9 14  4  0
  9 17  4  0
 10 14  4  0
 10 32  4  0
 11 20  4  0
 11 29  4  0
 11 30  1  0
 12 18  4  0
 12 23  4  0
 12 33  4  0
 13 14  4  0
 13 24  4  0
 15 28  4  0
 15 34  4  0
 16 21  1  0
 16 34  4  0
 17 28  4  0
 19 32  1  0
 21 23  4  0
 22 27  4  0
 22 29  4  0
 23 31  4  0
 25 32  4  0
 26 31  4  0
 30 33  1  0
M  END
$$$$

 Created by Python create_sdf_string function

 34 39  0  0  0  0  0  0  0  0999 V2000
   11.7748   -2.4134   21.4869 O   0  0  0  0  0  0  0  0  0  0  0  0
    8.4571   -5.0280   15.5489 C   0  0  0  0  0  0  0  0  0  0  0  0
   10.6373   -4.1527   22.1338 O   0  0  0  0  0  0  0  0  0  0  0  0
    0.8865  -10.1736   16.8062 N   0  0  0  0  0  0  0  0  0  0  0  0
    0.6363  -11.5685   22.3514 C   0  0  0  0  0  0  0  0  0  0  0  0
    4.9382   -9.8865   18.4135 C   0  0  0  0  0  0  0  0  0  0  0  0
   10.8301   -3.1290   17.5832 C   0  0  0  0  0  0  0  0  0  0  0  0
    6.7438   -7.4973   17.7359 C   0  0  0  0  0  0  0  0  0  0  0  0
    8.5781   -5.9390   18.1797 N   0  0  0  0  0  0  0  0  0  0  0  0
    9.9427   -4.7068   19.6371 C   0  0  0  0  0  0  0  0  0  0  0  0
    0.4794  -11.4482   19.9323 C   0  0  0  0  0  0  0  0  0  0  0  0
    2.8970  -10.2853   17.8533 C   0  0  0  0  0  0  0  0  0  0  0  0
    9.9066   -4.1176   17.2835 C   0  0  0  0  0  0  0  0  0  0  0  0
    9.4685   -4.9581   18.3697 C   0  0  0  0  0  0  0  0  0  0  0  0
    6.5959   -6.5143   15.2606 C   0  0  0  0  0  0  0  0  0  0  0  0
    5.7287   -7.9676   16.9587 C   0  0  0  0  0  0  0  0  0  0  0  0
    7.6332   -6.5041   17.3535 C   0  0  0  0  0  0  0  0  0  0  0  0
    3.8550  -10.6808   18.6840 N   0  0  0  0  0  0  0  0  0  0  0  0
   11.0986   -3.3658   21.2207 C   0  0  0  0  0  0  0  0  0  0  0  0
    1.1160  -11.8135   21.0849 C   0  0  0  0  0  0  0  0  0  0  0  0
    4.7306   -8.9915   17.4326 C   0  0  0  0  0  0  0  0  0  0  0  0
   -1.3063  -10.5114   21.2530 C   0  0  0  0  0  0  0  0  0  0  0  0
    3.4124   -9.2810   17.0553 N   0  0  0  0  0  0  0  0  0  0  0  0
    9.4002   -4.2777   15.9890 C   0  0  0  0  0  0  0  0  0  0  0  0
   11.2565   -2.8190   18.8531 C   0  0  0  0  0  0  0  0  0  0  0  0
    1.3860   -9.2081   16.0076 C   0  0  0  0  0  0  0  0  0  0  0  0
   -0.6049  -10.8692   22.4441 C   0  0  0  0  0  0  0  0  0  0  0  0
    7.5780   -5.9951   16.0165 C   0  0  0  0  0  0  0  0  0  0  0  0
   -0.7359  -10.8450   20.0542 C   0  0  0  0  0  0  0  0  0  0  0  0
    1.0240  -11.7443   18.6054 C   0  0  0  0  0  0  0  0  0  0  0  0
    2.6597   -8.7525   16.1422 C   0  0  0  0  0  0  0  0  0  0  0  0
   10.7697   -3.6382   19.8893 C   0  0  0  0  0  0  0  0  0  0  0  0
    1.5848  -10.7455   17.7777 C   0  0  0  0  0  0  0  0  0  0  0  0
    5.6785   -7.4130   15.7047 C   0  0  0  0  0  0  0  0  0  0  0  0
  1 19  2  0
  2 24  4  0
  2 28  4  0
  3 19  1  0
  4 26  4  0
  4 33  4  0
  5 20  4  0
  5 27  4  0
  6 18  4  0
  6 21  4  0
  7 13  4  0
  7 25  4  0
  8 16  4  0
  8 17  4  0
  9 14  4  0
  9 17  4  0
 10 14  4  0
 10 32  4  0
 11 20  4  0
 11 29  4  0
 11 30  1  0
 12 18  4  0
 12 23  4  0
 12 33  4  0
 13 14  4  0
 13 24  4  0
 15 28  4  0
 15 34  4  0
 16 21  1  0
 16 34  4  0
 17 28  4  0
 19 32  1  0
 21 23  4  0
 22 27  4  0
 22 29  4  0
 23 31  4  0
 25 32  4  0
 26 31  4  0
 30 33  1  0
M  END
$$$$

 Created by Python create_sdf_string function

 34 39  0  0  0  0  0  0  0  0999 V2000
   11.7748   -2.4134   21.4869 O   0  0  0  0  0  0  0  0  0  0  0  0
    8.4571   -5.0280   15.5489 C   0  0  0  0  0  0  0  0  0  0  0  0
   10.6373   -4.1527   22.1338 O   0  0  0  0  0  0  0  0  0  0  0  0
    0.8865  -10.1736   16.8062 N   0  0  0  0  0  0  0  0  0  0  0  0
    0.6363  -11.5685   22.3514 C   0  0  0  0  0  0  0  0  0  0  0  0
    4.9382   -9.8865   18.4135 C   0  0  0  0  0  0  0  0  0  0  0  0
   10.8301   -3.1290   17.5832 C   0  0  0  0  0  0  0  0  0  0  0  0
    6.7438   -7.4973   17.7359 C   0  0  0  0  0  0  0  0  0  0  0  0
    8.5781   -5.9390   18.1797 N   0  0  0  0  0  0  0  0  0  0  0  0
    9.9427   -4.7068   19.6371 C   0  0  0  0  0  0  0  0  0  0  0  0
    0.4794  -11.4482   19.9323 C   0  0  0  0  0  0  0  0  0  0  0  0
    2.8970  -10.2853   17.8533 C   0  0  0  0  0  0  0  0  0  0  0  0
    9.9066   -4.1176   17.2835 C   0  0  0  0  0  0  0  0  0  0  0  0
    9.4685   -4.9581   18.3697 C   0  0  0  0  0  0  0  0  0  0  0  0
    6.5959   -6.5143   15.2606 C   0  0  0  0  0  0  0  0  0  0  0  0
    5.7287   -7.9676   16.9587 C   0  0  0  0  0  0  0  0  0  0  0  0
    7.6332   -6.5041   17.3535 C   0  0  0  0  0  0  0  0  0  0  0  0
    3.8550  -10.6808   18.6840 N   0  0  0  0  0  0  0  0  0  0  0  0
   11.0986   -3.3658   21.2207 C   0  0  0  0  0  0  0  0  0  0  0  0
    1.1160  -11.8135   21.0849 C   0  0  0  0  0  0  0  0  0  0  0  0
    4.7306   -8.9915   17.4326 C   0  0  0  0  0  0  0  0  0  0  0  0
   -1.3063  -10.5114   21.2530 C   0  0  0  0  0  0  0  0  0  0  0  0
    3.4124   -9.2810   17.0553 N   0  0  0  0  0  0  0  0  0  0  0  0
    9.4002   -4.2777   15.9890 C   0  0  0  0  0  0  0  0  0  0  0  0
   11.2565   -2.8190   18.8531 C   0  0  0  0  0  0  0  0  0  0  0  0
    1.3860   -9.2081   16.0076 C   0  0  0  0  0  0  0  0  0  0  0  0
   -0.6049  -10.8692   22.4441 C   0  0  0  0  0  0  0  0  0  0  0  0
    7.5780   -5.9951   16.0165 C   0  0  0  0  0  0  0  0  0  0  0  0
   -0.7359  -10.8450   20.0542 C   0  0  0  0  0  0  0  0  0  0  0  0
    1.0240  -11.7443   18.6054 C   0  0  0  0  0  0  0  0  0  0  0  0
    2.6597   -8.7525   16.1422 C   0  0  0  0  0  0  0  0  0  0  0  0
   10.7697   -3.6382   19.8893 C   0  0  0  0  0  0  0  0  0  0  0  0
    1.5848  -10.7455   17.7777 C   0  0  0  0  0  0  0  0  0  0  0  0
    5.6785   -7.4130   15.7047 C   0  0  0  0  0  0  0  0  0  0  0  0
  1 19  2  0
  2 24  4  0
  2 28  4  0
  3 19  1  0
  4 26  4  0
  4 33  4  0
  5 20  4  0
  5 27  4  0
  6 18  4  0
  6 21  4  0
  7 13  4  0
  7 25  4  0
  8 16  4  0
  8 17  4  0
  9 14  4  0
  9 17  4  0
 10 14  4  0
 10 32  4  0
 11 20  4  0
 11 29  4  0
 11 30  1  0
 12 18  4  0
 12 23  4  0
 12 33  4  0
 13 14  4  0
 13 24  4  0
 15 28  4  0
 15 34  4  0
 16 21  1  0
 16 34  4  0
 17 28  4  0
 19 32  1  0
 21 23  4  0
 22 27  4  0
 22 29  4  0
 23 31  4  0
 25 32  4  0
 26 31  4  0
 30 33  1  0
M  END
$$$$

 Created by Python create_sdf_string function

 34 39  0  0  0  0  0  0  0  0999 V2000
   11.7748   -2.4134   21.4869 O   0  0  0  0  0  0  0  0  0  0  0  0
    8.4571   -5.0280   15.5489 C   0  0  0  0  0  0  0  0  0  0  0  0
   10.6373   -4.1527   22.1338 O   0  0  0  0  0  0  0  0  0  0  0  0
    0.8865  -10.1736   16.8062 N   0  0  0  0  0  0  0  0  0  0  0  0
    0.6363  -11.5685   22.3514 C   0  0  0  0  0  0  0  0  0  0  0  0
    4.9382   -9.8865   18.4135 C   0  0  0  0  0  0  0  0  0  0  0  0
   10.8301   -3.1290   17.5832 C   0  0  0  0  0  0  0  0  0  0  0  0
    6.7438   -7.4973   17.7359 C   0  0  0  0  0  0  0  0  0  0  0  0
    8.5781   -5.9390   18.1797 N   0  0  0  0  0  0  0  0  0  0  0  0
    9.9427   -4.7068   19.6371 C   0  0  0  0  0  0  0  0  0  0  0  0
    0.4794  -11.4482   19.9323 C   0  0  0  0  0  0  0  0  0  0  0  0
    2.8970  -10.2853   17.8533 C   0  0  0  0  0  0  0  0  0  0  0  0
    9.9066   -4.1176   17.2835 C   0  0  0  0  0  0  0  0  0  0  0  0
    9.4685   -4.9581   18.3697 C   0  0  0  0  0  0  0  0  0  0  0  0
    6.5959   -6.5143   15.2606 C   0  0  0  0  0  0  0  0  0  0  0  0
    5.7287   -7.9676   16.9587 C   0  0  0  0  0  0  0  0  0  0  0  0
    7.6332   -6.5041   17.3535 C   0  0  0  0  0  0  0  0  0  0  0  0
    3.8550  -10.6808   18.6840 N   0  0  0  0  0  0  0  0  0  0  0  0
   11.0986   -3.3658   21.2207 C   0  0  0  0  0  0  0  0  0  0  0  0
    1.1160  -11.8135   21.0849 C   0  0  0  0  0  0  0  0  0  0  0  0
    4.7306   -8.9915   17.4326 C   0  0  0  0  0  0  0  0  0  0  0  0
   -1.3063  -10.5114   21.2530 C   0  0  0  0  0  0  0  0  0  0  0  0
    3.4124   -9.2810   17.0553 N   0  0  0  0  0  0  0  0  0  0  0  0
    9.4002   -4.2777   15.9890 C   0  0  0  0  0  0  0  0  0  0  0  0
   11.2565   -2.8190   18.8531 C   0  0  0  0  0  0  0  0  0  0  0  0
    1.3860   -9.2081   16.0076 C   0  0  0  0  0  0  0  0  0  0  0  0
   -0.6049  -10.8692   22.4441 C   0  0  0  0  0  0  0  0  0  0  0  0
    7.5780   -5.9951   16.0165 C   0  0  0  0  0  0  0  0  0  0  0  0
   -0.7359  -10.8450   20.0542 C   0  0  0  0  0  0  0  0  0  0  0  0
    1.0240  -11.7443   18.6054 C   0  0  0  0  0  0  0  0  0  0  0  0
    2.6597   -8.7525   16.1422 C   0  0  0  0  0  0  0  0  0  0  0  0
   10.7697   -3.6382   19.8893 C   0  0  0  0  0  0  0  0  0  0  0  0
    1.5848  -10.7455   17.7777 C   0  0  0  0  0  0  0  0  0  0  0  0
    5.6785   -7.4130   15.7047 C   0  0  0  0  0  0  0  0  0  0  0  0
  1 19  2  0
  2 24  4  0
  2 28  4  0
  3 19  1  0
  4 26  4  0
  4 33  4  0
  5 20  4  0
  5 27  4  0
  6 18  4  0
  6 21  4  0
  7 13  4  0
  7 25  4  0
  8 16  4  0
  8 17  4  0
  9 14  4  0
  9 17  4  0
 10 14  4  0
 10 32  4  0
 11 20  4  0
 11 29  4  0
 11 30  1  0
 12 18  4  0
 12 23  4  0
 12 33  4  0
 13 14  4  0
 13 24  4  0
 15 28  4  0
 15 34  4  0
 16 21  1  0
 16 34  4  0
 17 28  4  0
 19 32  1  0
 21 23  4  0
 22 27  4  0
 22 29  4  0
 23 31  4  0
 25 32  4  0
 26 31  4  0
 30 33  1  0
M  END
$$$$

 Created by Python create_sdf_string function

 34 39  0  0  0  0  0  0  0  0999 V2000
   11.7748   -2.4134   21.4869 O   0  0  0  0  0  0  0  0  0  0  0  0
    8.4571   -5.0280   15.5489 C   0  0  0  0  0  0  0  0  0  0  0  0
   10.6373   -4.1527   22.1338 O   0  0  0  0  0  0  0  0  0  0  0  0
    0.8865  -10.1736   16.8062 N   0  0  0  0  0  0  0  0  0  0  0  0
    0.6363  -11.5685   22.3514 C   0  0  0  0  0  0  0  0  0  0  0  0
    4.9382   -9.8865   18.4135 C   0  0  0  0  0  0  0  0  0  0  0  0
   10.8301   -3.1290   17.5832 C   0  0  0  0  0  0  0  0  0  0  0  0
    6.7438   -7.4973   17.7359 C   0  0  0  0  0  0  0  0  0  0  0  0
    8.5781   -5.9390   18.1797 N   0  0  0  0  0  0  0  0  0  0  0  0
    9.9427   -4.7068   19.6371 C   0  0  0  0  0  0  0  0  0  0  0  0
    0.4794  -11.4482   19.9323 C   0  0  0  0  0  0  0  0  0  0  0  0
    2.8970  -10.2853   17.8533 C   0  0  0  0  0  0  0  0  0  0  0  0
    9.9066   -4.1176   17.2835 C   0  0  0  0  0  0  0  0  0  0  0  0
    9.4685   -4.9581   18.3697 C   0  0  0  0  0  0  0  0  0  0  0  0
    6.5959   -6.5143   15.2606 C   0  0  0  0  0  0  0  0  0  0  0  0
    5.7287   -7.9676   16.9587 C   0  0  0  0  0  0  0  0  0  0  0  0
    7.6332   -6.5041   17.3535 C   0  0  0  0  0  0  0  0  0  0  0  0
    3.8550  -10.6808   18.6840 N   0  0  0  0  0  0  0  0  0  0  0  0
   11.0986   -3.3658   21.2207 C   0  0  0  0  0  0  0  0  0  0  0  0
    1.1160  -11.8135   21.0849 C   0  0  0  0  0  0  0  0  0  0  0  0
    4.7306   -8.9915   17.4326 C   0  0  0  0  0  0  0  0  0  0  0  0
   -1.3063  -10.5114   21.2530 C   0  0  0  0  0  0  0  0  0  0  0  0
    3.4124   -9.2810   17.0553 N   0  0  0  0  0  0  0  0  0  0  0  0
    9.4002   -4.2777   15.9890 C   0  0  0  0  0  0  0  0  0  0  0  0
   11.2565   -2.8190   18.8531 C   0  0  0  0  0  0  0  0  0  0  0  0
    1.3860   -9.2081   16.0076 C   0  0  0  0  0  0  0  0  0  0  0  0
   -0.6049  -10.8692   22.4441 C   0  0  0  0  0  0  0  0  0  0  0  0
    7.5780   -5.9951   16.0165 C   0  0  0  0  0  0  0  0  0  0  0  0
   -0.7359  -10.8450   20.0542 C   0  0  0  0  0  0  0  0  0  0  0  0
    1.0240  -11.7443   18.6054 C   0  0  0  0  0  0  0  0  0  0  0  0
    2.6597   -8.7525   16.1422 C   0  0  0  0  0  0  0  0  0  0  0  0
   10.7697   -3.6382   19.8893 C   0  0  0  0  0  0  0  0  0  0  0  0
    1.5848  -10.7455   17.7777 C   0  0  0  0  0  0  0  0  0  0  0  0
    5.6785   -7.4130   15.7047 C   0  0  0  0  0  0  0  0  0  0  0  0
  1 19  2  0
  2 24  4  0
  2 28  4  0
  3 19  1  0
  4 26  4  0
  4 33  4  0
  5 20  4  0
  5 27  4  0
  6 18  4  0
  6 21  4  0
  7 13  4  0
  7 25  4  0
  8 16  4  0
  8 17  4  0
  9 14  4  0
  9 17  4  0
 10 14  4  0
 10 32  4  0
 11 20  4  0
 11 29  4  0
 11 30  1  0
 12 18  4  0
 12 23  4  0
 12 33  4  0
 13 14  4  0
 13 24  4  0
 15 28  4  0
 15 34  4  0
 16 21  1  0
 16 34  4  0
 17 28  4  0
 19 32  1  0
 21 23  4  0
 22 27  4  0
 22 29  4  0
 23 31  4  0
 25 32  4  0
 26 31  4  0
 30 33  1  0
M  END
$$$$

 Created by Python create_sdf_string function

 34 39  0  0  0  0  0  0  0  0999 V2000
   11.7748   -2.4134   21.4869 O   0  0  0  0  0  0  0  0  0  0  0  0
    8.4571   -5.0280   15.5489 C   0  0  0  0  0  0  0  0  0  0  0  0
   10.6373   -4.1527   22.1338 O   0  0  0  0  0  0  0  0  0  0  0  0
    0.8865  -10.1736   16.8062 N   0  0  0  0  0  0  0  0  0  0  0  0
    0.6363  -11.5685   22.3514 C   0  0  0  0  0  0  0  0  0  0  0  0
    4.9382   -9.8865   18.4135 C   0  0  0  0  0  0  0  0  0  0  0  0
   10.8301   -3.1290   17.5832 C   0  0  0  0  0  0  0  0  0  0  0  0
    6.7438   -7.4973   17.7359 C   0  0  0  0  0  0  0  0  0  0  0  0
    8.5781   -5.9390   18.1797 N   0  0  0  0  0  0  0  0  0  0  0  0
    9.9427   -4.7068   19.6371 C   0  0  0  0  0  0  0  0  0  0  0  0
    0.4794  -11.4482   19.9323 C   0  0  0  0  0  0  0  0  0  0  0  0
    2.8970  -10.2853   17.8533 C   0  0  0  0  0  0  0  0  0  0  0  0
    9.9066   -4.1176   17.2835 C   0  0  0  0  0  0  0  0  0  0  0  0
    9.4685   -4.9581   18.3697 C   0  0  0  0  0  0  0  0  0  0  0  0
    6.5959   -6.5143   15.2606 C   0  0  0  0  0  0  0  0  0  0  0  0
    5.7287   -7.9676   16.9587 C   0  0  0  0  0  0  0  0  0  0  0  0
    7.6332   -6.5041   17.3535 C   0  0  0  0  0  0  0  0  0  0  0  0
    3.8550  -10.6808   18.6840 N   0  0  0  0  0  0  0  0  0  0  0  0
   11.0986   -3.3658   21.2207 C   0  0  0  0  0  0  0  0  0  0  0  0
    1.1160  -11.8135   21.0849 C   0  0  0  0  0  0  0  0  0  0  0  0
    4.7306   -8.9915   17.4326 C   0  0  0  0  0  0  0  0  0  0  0  0
   -1.3063  -10.5114   21.2530 C   0  0  0  0  0  0  0  0  0  0  0  0
    3.4124   -9.2810   17.0553 N   0  0  0  0  0  0  0  0  0  0  0  0
    9.4002   -4.2777   15.9890 C   0  0  0  0  0  0  0  0  0  0  0  0
   11.2565   -2.8190   18.8531 C   0  0  0  0  0  0  0  0  0  0  0  0
    1.3860   -9.2081   16.0076 C   0  0  0  0  0  0  0  0  0  0  0  0
   -0.6049  -10.8692   22.4441 C   0  0  0  0  0  0  0  0  0  0  0  0
    7.5780   -5.9951   16.0165 C   0  0  0  0  0  0  0  0  0  0  0  0
   -0.7359  -10.8450   20.0542 C   0  0  0  0  0  0  0  0  0  0  0  0
    1.0240  -11.7443   18.6054 C   0  0  0  0  0  0  0  0  0  0  0  0
    2.6597   -8.7525   16.1422 C   0  0  0  0  0  0  0  0  0  0  0  0
   10.7697   -3.6382   19.8893 C   0  0  0  0  0  0  0  0  0  0  0  0
    1.5848  -10.7455   17.7777 C   0  0  0  0  0  0  0  0  0  0  0  0
    5.6785   -7.4130   15.7047 C   0  0  0  0  0  0  0  0  0  0  0  0
  1 19  2  0
  2 24  4  0
  2 28  4  0
  3 19  1  0
  4 26  4  0
  4 33  4  0
  5 20  4  0
  5 27  4  0
  6 18  4  0
  6 21  4  0
  7 13  4  0
  7 25  4  0
  8 16  4  0
  8 17  4  0
  9 14  4  0
  9 17  4  0
 10 14  4  0
 10 32  4  0
 11 20  4  0
 11 29  4  0
 11 30  1  0
 12 18  4  0
 12 23  4  0
 12 33  4  0
 13 14  4  0
 13 24  4  0
 15 28  4  0
 15 34  4  0
 16 21  1  0
 16 34  4  0
 17 28  4  0
 19 32  1  0
 21 23  4  0
 22 27  4  0
 22 29  4  0
 23 31  4  0
 25 32  4  0
 26 31  4  0
 30 33  1  0
M  END
$$$$

 Created by Python create_sdf_string function

 34 39  0  0  0  0  0  0  0  0999 V2000
   11.7748   -2.4134   21.4869 O   0  0  0  0  0  0  0  0  0  0  0  0
    8.4571   -5.0280   15.5489 C   0  0  0  0  0  0  0  0  0  0  0  0
   10.6373   -4.1527   22.1338 O   0  0  0  0  0  0  0  0  0  0  0  0
    0.8865  -10.1736   16.8062 N   0  0  0  0  0  0  0  0  0  0  0  0
    0.6363  -11.5685   22.3514 C   0  0  0  0  0  0  0  0  0  0  0  0
    4.9382   -9.8865   18.4135 C   0  0  0  0  0  0  0  0  0  0  0  0
   10.8301   -3.1290   17.5832 C   0  0  0  0  0  0  0  0  0  0  0  0
    6.7438   -7.4973   17.7359 C   0  0  0  0  0  0  0  0  0  0  0  0
    8.5781   -5.9390   18.1797 N   0  0  0  0  0  0  0  0  0  0  0  0
    9.9427   -4.7068   19.6371 C   0  0  0  0  0  0  0  0  0  0  0  0
    0.4794  -11.4482   19.9323 C   0  0  0  0  0  0  0  0  0  0  0  0
    2.8970  -10.2853   17.8533 C   0  0  0  0  0  0  0  0  0  0  0  0
    9.9066   -4.1176   17.2835 C   0  0  0  0  0  0  0  0  0  0  0  0
    9.4685   -4.9581   18.3697 C   0  0  0  0  0  0  0  0  0  0  0  0
    6.5959   -6.5143   15.2606 C   0  0  0  0  0  0  0  0  0  0  0  0
    5.7287   -7.9676   16.9587 C   0  0  0  0  0  0  0  0  0  0  0  0
    7.6332   -6.5041   17.3535 C   0  0  0  0  0  0  0  0  0  0  0  0
    3.8550  -10.6808   18.6840 N   0  0  0  0  0  0  0  0  0  0  0  0
   11.0986   -3.3658   21.2207 C   0  0  0  0  0  0  0  0  0  0  0  0
    1.1160  -11.8135   21.0849 C   0  0  0  0  0  0  0  0  0  0  0  0
    4.7306   -8.9915   17.4326 C   0  0  0  0  0  0  0  0  0  0  0  0
   -1.3063  -10.5114   21.2530 C   0  0  0  0  0  0  0  0  0  0  0  0
    3.4124   -9.2810   17.0553 N   0  0  0  0  0  0  0  0  0  0  0  0
    9.4002   -4.2777   15.9890 C   0  0  0  0  0  0  0  0  0  0  0  0
   11.2565   -2.8190   18.8531 C   0  0  0  0  0  0  0  0  0  0  0  0
    1.3860   -9.2081   16.0076 C   0  0  0  0  0  0  0  0  0  0  0  0
   -0.6049  -10.8692   22.4441 C   0  0  0  0  0  0  0  0  0  0  0  0
    7.5780   -5.9951   16.0165 C   0  0  0  0  0  0  0  0  0  0  0  0
   -0.7359  -10.8450   20.0542 C   0  0  0  0  0  0  0  0  0  0  0  0
    1.0240  -11.7443   18.6054 C   0  0  0  0  0  0  0  0  0  0  0  0
    2.6597   -8.7525   16.1422 C   0  0  0  0  0  0  0  0  0  0  0  0
   10.7697   -3.6382   19.8893 C   0  0  0  0  0  0  0  0  0  0  0  0
    1.5848  -10.7455   17.7777 C   0  0  0  0  0  0  0  0  0  0  0  0
    5.6785   -7.4130   15.7047 C   0  0  0  0  0  0  0  0  0  0  0  0
  1 19  2  0
  2 24  4  0
  2 28  4  0
  3 19  1  0
  4 26  4  0
  4 33  4  0
  5 20  4  0
  5 27  4  0
  6 18  4  0
  6 21  4  0
  7 13  4  0
  7 25  4  0
  8 16  4  0
  8 17  4  0
  9 14  4  0
  9 17  4  0
 10 14  4  0
 10 32  4  0
 11 20  4  0
 11 29  4  0
 11 30  1  0
 12 18  4  0
 12 23  4  0
 12 33  4  0
 13 14  4  0
 13 24  4  0
 15 28  4  0
 15 34  4  0
 16 21  1  0
 16 34  4  0
 17 28  4  0
 19 32  1  0
 21 23  4  0
 22 27  4  0
 22 29  4  0
 23 31  4  0
 25 32  4  0
 26 31  4  0
 30 33  1  0
M  END
$$$$

 Created by Python create_sdf_string function

 34 39  0  0  0  0  0  0  0  0999 V2000
   11.7748   -2.4134   21.4869 O   0  0  0  0  0  0  0  0  0  0  0  0
    8.4571   -5.0280   15.5489 C   0  0  0  0  0  0  0  0  0  0  0  0
   10.6373   -4.1527   22.1338 O   0  0  0  0  0  0  0  0  0  0  0  0
    0.8865  -10.1736   16.8062 N   0  0  0  0  0  0  0  0  0  0  0  0
    0.6363  -11.5685   22.3514 C   0  0  0  0  0  0  0  0  0  0  0  0
    4.9382   -9.8865   18.4135 C   0  0  0  0  0  0  0  0  0  0  0  0
   10.8301   -3.1290   17.5832 C   0  0  0  0  0  0  0  0  0  0  0  0
    6.7438   -7.4973   17.7359 C   0  0  0  0  0  0  0  0  0  0  0  0
    8.5781   -5.9390   18.1797 N   0  0  0  0  0  0  0  0  0  0  0  0
    9.9427   -4.7068   19.6371 C   0  0  0  0  0  0  0  0  0  0  0  0
    0.4794  -11.4482   19.9323 C   0  0  0  0  0  0  0  0  0  0  0  0
    2.8970  -10.2853   17.8533 C   0  0  0  0  0  0  0  0  0  0  0  0
    9.9066   -4.1176   17.2835 C   0  0  0  0  0  0  0  0  0  0  0  0
    9.4685   -4.9581   18.3697 C   0  0  0  0  0  0  0  0  0  0  0  0
    6.5959   -6.5143   15.2606 C   0  0  0  0  0  0  0  0  0  0  0  0
    5.7287   -7.9676   16.9587 C   0  0  0  0  0  0  0  0  0  0  0  0
    7.6332   -6.5041   17.3535 C   0  0  0  0  0  0  0  0  0  0  0  0
    3.8550  -10.6808   18.6840 N   0  0  0  0  0  0  0  0  0  0  0  0
   11.0986   -3.3658   21.2207 C   0  0  0  0  0  0  0  0  0  0  0  0
    1.1160  -11.8135   21.0849 C   0  0  0  0  0  0  0  0  0  0  0  0
    4.7306   -8.9915   17.4326 C   0  0  0  0  0  0  0  0  0  0  0  0
   -1.3063  -10.5114   21.2530 C   0  0  0  0  0  0  0  0  0  0  0  0
    3.4124   -9.2810   17.0553 N   0  0  0  0  0  0  0  0  0  0  0  0
    9.4002   -4.2777   15.9890 C   0  0  0  0  0  0  0  0  0  0  0  0
   11.2565   -2.8190   18.8531 C   0  0  0  0  0  0  0  0  0  0  0  0
    1.3860   -9.2081   16.0076 C   0  0  0  0  0  0  0  0  0  0  0  0
   -0.6049  -10.8692   22.4441 C   0  0  0  0  0  0  0  0  0  0  0  0
    7.5780   -5.9951   16.0165 C   0  0  0  0  0  0  0  0  0  0  0  0
   -0.7359  -10.8450   20.0542 C   0  0  0  0  0  0  0  0  0  0  0  0
    1.0240  -11.7443   18.6054 C   0  0  0  0  0  0  0  0  0  0  0  0
    2.6597   -8.7525   16.1422 C   0  0  0  0  0  0  0  0  0  0  0  0
   10.7697   -3.6382   19.8893 C   0  0  0  0  0  0  0  0  0  0  0  0
    1.5848  -10.7455   17.7777 C   0  0  0  0  0  0  0  0  0  0  0  0
    5.6785   -7.4130   15.7047 C   0  0  0  0  0  0  0  0  0  0  0  0
  1 19  2  0
  2 24  4  0
  2 28  4  0
  3 19  1  0
  4 26  4  0
  4 33  4  0
  5 20  4  0
  5 27  4  0
  6 18  4  0
  6 21  4  0
  7 13  4  0
  7 25  4  0
  8 16  4  0
  8 17  4  0
  9 14  4  0
  9 17  4  0
 10 14  4  0
 10 32  4  0
 11 20  4  0
 11 29  4  0
 11 30  1  0
 12 18  4  0
 12 23  4  0
 12 33  4  0
 13 14  4  0
 13 24  4  0
 15 28  4  0
 15 34  4  0
 16 21  1  0
 16 34  4  0
 17 28  4  0
 19 32  1  0
 21 23  4  0
 22 27  4  0
 22 29  4  0
 23 31  4  0
 25 32  4  0
 26 31  4  0
 30 33  1  0
M  END
$$$$

 Created by Python create_sdf_string function

 34 39  0  0  0  0  0  0  0  0999 V2000
   11.7748   -2.4134   21.4869 O   0  0  0  0  0  0  0  0  0  0  0  0
    8.4571   -5.0280   15.5489 C   0  0  0  0  0  0  0  0  0  0  0  0
   10.6373   -4.1527   22.1338 O   0  0  0  0  0  0  0  0  0  0  0  0
    0.8865  -10.1736   16.8062 N   0  0  0  0  0  0  0  0  0  0  0  0
    0.6363  -11.5685   22.3514 C   0  0  0  0  0  0  0  0  0  0  0  0
    4.9382   -9.8865   18.4135 C   0  0  0  0  0  0  0  0  0  0  0  0
   10.8301   -3.1290   17.5832 C   0  0  0  0  0  0  0  0  0  0  0  0
    6.7438   -7.4973   17.7359 C   0  0  0  0  0  0  0  0  0  0  0  0
    8.5781   -5.9390   18.1797 N   0  0  0  0  0  0  0  0  0  0  0  0
    9.9427   -4.7068   19.6371 C   0  0  0  0  0  0  0  0  0  0  0  0
    0.4794  -11.4482   19.9323 C   0  0  0  0  0  0  0  0  0  0  0  0
    2.8970  -10.2853   17.8533 C   0  0  0  0  0  0  0  0  0  0  0  0
    9.9066   -4.1176   17.2835 C   0  0  0  0  0  0  0  0  0  0  0  0
    9.4685   -4.9581   18.3697 C   0  0  0  0  0  0  0  0  0  0  0  0
    6.5959   -6.5143   15.2606 C   0  0  0  0  0  0  0  0  0  0  0  0
    5.7287   -7.9676   16.9587 C   0  0  0  0  0  0  0  0  0  0  0  0
    7.6332   -6.5041   17.3535 C   0  0  0  0  0  0  0  0  0  0  0  0
    3.8550  -10.6808   18.6840 N   0  0  0  0  0  0  0  0  0  0  0  0
   11.0986   -3.3658   21.2207 C   0  0  0  0  0  0  0  0  0  0  0  0
    1.1160  -11.8135   21.0849 C   0  0  0  0  0  0  0  0  0  0  0  0
    4.7306   -8.9915   17.4326 C   0  0  0  0  0  0  0  0  0  0  0  0
   -1.3063  -10.5114   21.2530 C   0  0  0  0  0  0  0  0  0  0  0  0
    3.4124   -9.2810   17.0553 N   0  0  0  0  0  0  0  0  0  0  0  0
    9.4002   -4.2777   15.9890 C   0  0  0  0  0  0  0  0  0  0  0  0
   11.2565   -2.8190   18.8531 C   0  0  0  0  0  0  0  0  0  0  0  0
    1.3860   -9.2081   16.0076 C   0  0  0  0  0  0  0  0  0  0  0  0
   -0.6049  -10.8692   22.4441 C   0  0  0  0  0  0  0  0  0  0  0  0
    7.5780   -5.9951   16.0165 C   0  0  0  0  0  0  0  0  0  0  0  0
   -0.7359  -10.8450   20.0542 C   0  0  0  0  0  0  0  0  0  0  0  0
    1.0240  -11.7443   18.6054 C   0  0  0  0  0  0  0  0  0  0  0  0
    2.6597   -8.7525   16.1422 C   0  0  0  0  0  0  0  0  0  0  0  0
   10.7697   -3.6382   19.8893 C   0  0  0  0  0  0  0  0  0  0  0  0
    1.5848  -10.7455   17.7777 C   0  0  0  0  0  0  0  0  0  0  0  0
    5.6785   -7.4130   15.7047 C   0  0  0  0  0  0  0  0  0  0  0  0
  1 19  2  0
  2 24  4  0
  2 28  4  0
  3 19  1  0
  4 26  4  0
  4 33  4  0
  5 20  4  0
  5 27  4  0
  6 18  4  0
  6 21  4  0
  7 13  4  0
  7 25  4  0
  8 16  4  0
  8 17  4  0
  9 14  4  0
  9 17  4  0
 10 14  4  0
 10 32  4  0
 11 20  4  0
 11 29  4  0
 11 30  1  0
 12 18  4  0
 12 23  4  0
 12 33  4  0
 13 14  4  0
 13 24  4  0
 15 28  4  0
 15 34  4  0
 16 21  1  0
 16 34  4  0
 17 28  4  0
 19 32  1  0
 21 23  4  0
 22 27  4  0
 22 29  4  0
 23 31  4  0
 25 32  4  0
 26 31  4  0
 30 33  1  0
M  END
$$$$

 Created by Python create_sdf_string function

 34 39  0  0  0  0  0  0  0  0999 V2000
   11.7748   -2.4134   21.4869 O   0  0  0  0  0  0  0  0  0  0  0  0
    8.4571   -5.0280   15.5489 C   0  0  0  0  0  0  0  0  0  0  0  0
   10.6373   -4.1527   22.1338 O   0  0  0  0  0  0  0  0  0  0  0  0
    0.8865  -10.1736   16.8062 N   0  0  0  0  0  0  0  0  0  0  0  0
    0.6363  -11.5685   22.3514 C   0  0  0  0  0  0  0  0  0  0  0  0
    4.9382   -9.8865   18.4135 C   0  0  0  0  0  0  0  0  0  0  0  0
   10.8301   -3.1290   17.5832 C   0  0  0  0  0  0  0  0  0  0  0  0
    6.7438   -7.4973   17.7359 C   0  0  0  0  0  0  0  0  0  0  0  0
    8.5781   -5.9390   18.1797 N   0  0  0  0  0  0  0  0  0  0  0  0
    9.9427   -4.7068   19.6371 C   0  0  0  0  0  0  0  0  0  0  0  0
    0.4794  -11.4482   19.9323 C   0  0  0  0  0  0  0  0  0  0  0  0
    2.8970  -10.2853   17.8533 C   0  0  0  0  0  0  0  0  0  0  0  0
    9.9066   -4.1176   17.2835 C   0  0  0  0  0  0  0  0  0  0  0  0
    9.4685   -4.9581   18.3697 C   0  0  0  0  0  0  0  0  0  0  0  0
    6.5959   -6.5143   15.2606 C   0  0  0  0  0  0  0  0  0  0  0  0
    5.7287   -7.9676   16.9587 C   0  0  0  0  0  0  0  0  0  0  0  0
    7.6332   -6.5041   17.3535 C   0  0  0  0  0  0  0  0  0  0  0  0
    3.8550  -10.6808   18.6840 N   0  0  0  0  0  0  0  0  0  0  0  0
   11.0986   -3.3658   21.2207 C   0  0  0  0  0  0  0  0  0  0  0  0
    1.1160  -11.8135   21.0849 C   0  0  0  0  0  0  0  0  0  0  0  0
    4.7306   -8.9915   17.4326 C   0  0  0  0  0  0  0  0  0  0  0  0
   -1.3063  -10.5114   21.2530 C   0  0  0  0  0  0  0  0  0  0  0  0
    3.4124   -9.2810   17.0553 N   0  0  0  0  0  0  0  0  0  0  0  0
    9.4002   -4.2777   15.9890 C   0  0  0  0  0  0  0  0  0  0  0  0
   11.2565   -2.8190   18.8531 C   0  0  0  0  0  0  0  0  0  0  0  0
    1.3860   -9.2081   16.0076 C   0  0  0  0  0  0  0  0  0  0  0  0
   -0.6049  -10.8692   22.4441 C   0  0  0  0  0  0  0  0  0  0  0  0
    7.5780   -5.9951   16.0165 C   0  0  0  0  0  0  0  0  0  0  0  0
   -0.7359  -10.8450   20.0542 C   0  0  0  0  0  0  0  0  0  0  0  0
    1.0240  -11.7443   18.6054 C   0  0  0  0  0  0  0  0  0  0  0  0
    2.6597   -8.7525   16.1422 C   0  0  0  0  0  0  0  0  0  0  0  0
   10.7697   -3.6382   19.8893 C   0  0  0  0  0  0  0  0  0  0  0  0
    1.5848  -10.7455   17.7777 C   0  0  0  0  0  0  0  0  0  0  0  0
    5.6785   -7.4130   15.7047 C   0  0  0  0  0  0  0  0  0  0  0  0
  1 19  2  0
  2 24  4  0
  2 28  4  0
  3 19  1  0
  4 26  4  0
  4 33  4  0
  5 20  4  0
  5 27  4  0
  6 18  4  0
  6 21  4  0
  7 13  4  0
  7 25  4  0
  8 16  4  0
  8 17  4  0
  9 14  4  0
  9 17  4  0
 10 14  4  0
 10 32  4  0
 11 20  4  0
 11 29  4  0
 11 30  1  0
 12 18  4  0
 12 23  4  0
 12 33  4  0
 13 14  4  0
 13 24  4  0
 15 28  4  0
 15 34  4  0
 16 21  1  0
 16 34  4  0
 17 28  4  0
 19 32  1  0
 21 23  4  0
 22 27  4  0
 22 29  4  0
 23 31  4  0
 25 32  4  0
 26 31  4  0
 30 33  1  0
M  END
$$$$

 Created by Python create_sdf_string function

 34 39  0  0  0  0  0  0  0  0999 V2000
   11.7748   -2.4134   21.4869 O   0  0  0  0  0  0  0  0  0  0  0  0
    8.4571   -5.0280   15.5489 C   0  0  0  0  0  0  0  0  0  0  0  0
   10.6373   -4.1527   22.1338 O   0  0  0  0  0  0  0  0  0  0  0  0
    0.8865  -10.1736   16.8062 N   0  0  0  0  0  0  0  0  0  0  0  0
    0.6363  -11.5685   22.3514 C   0  0  0  0  0  0  0  0  0  0  0  0
    4.9382   -9.8865   18.4135 C   0  0  0  0  0  0  0  0  0  0  0  0
   10.8301   -3.1290   17.5832 C   0  0  0  0  0  0  0  0  0  0  0  0
    6.7438   -7.4973   17.7359 C   0  0  0  0  0  0  0  0  0  0  0  0
    8.5781   -5.9390   18.1797 N   0  0  0  0  0  0  0  0  0  0  0  0
    9.9427   -4.7068   19.6371 C   0  0  0  0  0  0  0  0  0  0  0  0
    0.4794  -11.4482   19.9323 C   0  0  0  0  0  0  0  0  0  0  0  0
    2.8970  -10.2853   17.8533 C   0  0  0  0  0  0  0  0  0  0  0  0
    9.9066   -4.1176   17.2835 C   0  0  0  0  0  0  0  0  0  0  0  0
    9.4685   -4.9581   18.3697 C   0  0  0  0  0  0  0  0  0  0  0  0
    6.5959   -6.5143   15.2606 C   0  0  0  0  0  0  0  0  0  0  0  0
    5.7287   -7.9676   16.9587 C   0  0  0  0  0  0  0  0  0  0  0  0
    7.6332   -6.5041   17.3535 C   0  0  0  0  0  0  0  0  0  0  0  0
    3.8550  -10.6808   18.6840 N   0  0  0  0  0  0  0  0  0  0  0  0
   11.0986   -3.3658   21.2207 C   0  0  0  0  0  0  0  0  0  0  0  0
    1.1160  -11.8135   21.0849 C   0  0  0  0  0  0  0  0  0  0  0  0
    4.7306   -8.9915   17.4326 C   0  0  0  0  0  0  0  0  0  0  0  0
   -1.3063  -10.5114   21.2530 C   0  0  0  0  0  0  0  0  0  0  0  0
    3.4124   -9.2810   17.0553 N   0  0  0  0  0  0  0  0  0  0  0  0
    9.4002   -4.2777   15.9890 C   0  0  0  0  0  0  0  0  0  0  0  0
   11.2565   -2.8190   18.8531 C   0  0  0  0  0  0  0  0  0  0  0  0
    1.3860   -9.2081   16.0076 C   0  0  0  0  0  0  0  0  0  0  0  0
   -0.6049  -10.8692   22.4441 C   0  0  0  0  0  0  0  0  0  0  0  0
    7.5780   -5.9951   16.0165 C   0  0  0  0  0  0  0  0  0  0  0  0
   -0.7359  -10.8450   20.0542 C   0  0  0  0  0  0  0  0  0  0  0  0
    1.0240  -11.7443   18.6054 C   0  0  0  0  0  0  0  0  0  0  0  0
    2.6597   -8.7525   16.1422 C   0  0  0  0  0  0  0  0  0  0  0  0
   10.7697   -3.6382   19.8893 C   0  0  0  0  0  0  0  0  0  0  0  0
    1.5848  -10.7455   17.7777 C   0  0  0  0  0  0  0  0  0  0  0  0
    5.6785   -7.4130   15.7047 C   0  0  0  0  0  0  0  0  0  0  0  0
  1 19  2  0
  2 24  4  0
  2 28  4  0
  3 19  1  0
  4 26  4  0
  4 33  4  0
  5 20  4  0
  5 27  4  0
  6 18  4  0
  6 21  4  0
  7 13  4  0
  7 25  4  0
  8 16  4  0
  8 17  4  0
  9 14  4  0
  9 17  4  0
 10 14  4  0
 10 32  4  0
 11 20  4  0
 11 29  4  0
 11 30  1  0
 12 18  4  0
 12 23  4  0
 12 33  4  0
 13 14  4  0
 13 24  4  0
 15 28  4  0
 15 34  4  0
 16 21  1  0
 16 34  4  0
 17 28  4  0
 19 32  1  0
 21 23  4  0
 22 27  4  0
 22 29  4  0
 23 31  4  0
 25 32  4  0
 26 31  4  0
 30 33  1  0
M  END
$$$$

 Created by Python create_sdf_string function

 34 39  0  0  0  0  0  0  0  0999 V2000
   11.7748   -2.4134   21.4869 O   0  0  0  0  0  0  0  0  0  0  0  0
    8.4571   -5.0280   15.5489 C   0  0  0  0  0  0  0  0  0  0  0  0
   10.6373   -4.1527   22.1338 O   0  0  0  0  0  0  0  0  0  0  0  0
    0.8865  -10.1736   16.8062 N   0  0  0  0  0  0  0  0  0  0  0  0
    0.6363  -11.5685   22.3514 C   0  0  0  0  0  0  0  0  0  0  0  0
    4.9382   -9.8865   18.4135 C   0  0  0  0  0  0  0  0  0  0  0  0
   10.8301   -3.1290   17.5832 C   0  0  0  0  0  0  0  0  0  0  0  0
    6.7438   -7.4973   17.7359 C   0  0  0  0  0  0  0  0  0  0  0  0
    8.5781   -5.9390   18.1797 N   0  0  0  0  0  0  0  0  0  0  0  0
    9.9427   -4.7068   19.6371 C   0  0  0  0  0  0  0  0  0  0  0  0
    0.4794  -11.4482   19.9323 C   0  0  0  0  0  0  0  0  0  0  0  0
    2.8970  -10.2853   17.8533 C   0  0  0  0  0  0  0  0  0  0  0  0
    9.9066   -4.1176   17.2835 C   0  0  0  0  0  0  0  0  0  0  0  0
    9.4685   -4.9581   18.3697 C   0  0  0  0  0  0  0  0  0  0  0  0
    6.5959   -6.5143   15.2606 C   0  0  0  0  0  0  0  0  0  0  0  0
    5.7287   -7.9676   16.9587 C   0  0  0  0  0  0  0  0  0  0  0  0
    7.6332   -6.5041   17.3535 C   0  0  0  0  0  0  0  0  0  0  0  0
    3.8550  -10.6808   18.6840 N   0  0  0  0  0  0  0  0  0  0  0  0
   11.0986   -3.3658   21.2207 C   0  0  0  0  0  0  0  0  0  0  0  0
    1.1160  -11.8135   21.0849 C   0  0  0  0  0  0  0  0  0  0  0  0
    4.7306   -8.9915   17.4326 C   0  0  0  0  0  0  0  0  0  0  0  0
   -1.3063  -10.5114   21.2530 C   0  0  0  0  0  0  0  0  0  0  0  0
    3.4124   -9.2810   17.0553 N   0  0  0  0  0  0  0  0  0  0  0  0
    9.4002   -4.2777   15.9890 C   0  0  0  0  0  0  0  0  0  0  0  0
   11.2565   -2.8190   18.8531 C   0  0  0  0  0  0  0  0  0  0  0  0
    1.3860   -9.2081   16.0076 C   0  0  0  0  0  0  0  0  0  0  0  0
   -0.6049  -10.8692   22.4441 C   0  0  0  0  0  0  0  0  0  0  0  0
    7.5780   -5.9951   16.0165 C   0  0  0  0  0  0  0  0  0  0  0  0
   -0.7359  -10.8450   20.0542 C   0  0  0  0  0  0  0  0  0  0  0  0
    1.0240  -11.7443   18.6054 C   0  0  0  0  0  0  0  0  0  0  0  0
    2.6597   -8.7525   16.1422 C   0  0  0  0  0  0  0  0  0  0  0  0
   10.7697   -3.6382   19.8893 C   0  0  0  0  0  0  0  0  0  0  0  0
    1.5848  -10.7455   17.7777 C   0  0  0  0  0  0  0  0  0  0  0  0
    5.6785   -7.4130   15.7047 C   0  0  0  0  0  0  0  0  0  0  0  0
  1 19  2  0
  2 24  4  0
  2 28  4  0
  3 19  1  0
  4 26  4  0
  4 33  4  0
  5 20  4  0
  5 27  4  0
  6 18  4  0
  6 21  4  0
  7 13  4  0
  7 25  4  0
  8 16  4  0
  8 17  4  0
  9 14  4  0
  9 17  4  0
 10 14  4  0
 10 32  4  0
 11 20  4  0
 11 29  4  0
 11 30  1  0
 12 18  4  0
 12 23  4  0
 12 33  4  0
 13 14  4  0
 13 24  4  0
 15 28  4  0
 15 34  4  0
 16 21  1  0
 16 34  4  0
 17 28  4  0
 19 32  1  0
 21 23  4  0
 22 27  4  0
 22 29  4  0
 23 31  4  0
 25 32  4  0
 26 31  4  0
 30 33  1  0
M  END
$$$$

 Created by Python create_sdf_string function

 34 39  0  0  0  0  0  0  0  0999 V2000
   11.7748   -2.4134   21.4869 O   0  0  0  0  0  0  0  0  0  0  0  0
    8.4571   -5.0280   15.5489 C   0  0  0  0  0  0  0  0  0  0  0  0
   10.6373   -4.1527   22.1338 O   0  0  0  0  0  0  0  0  0  0  0  0
    0.8865  -10.1736   16.8062 N   0  0  0  0  0  0  0  0  0  0  0  0
    0.6363  -11.5685   22.3514 C   0  0  0  0  0  0  0  0  0  0  0  0
    4.9382   -9.8865   18.4135 C   0  0  0  0  0  0  0  0  0  0  0  0
   10.8301   -3.1290   17.5832 C   0  0  0  0  0  0  0  0  0  0  0  0
    6.7438   -7.4973   17.7359 C   0  0  0  0  0  0  0  0  0  0  0  0
    8.5781   -5.9390   18.1797 N   0  0  0  0  0  0  0  0  0  0  0  0
    9.9427   -4.7068   19.6371 C   0  0  0  0  0  0  0  0  0  0  0  0
    0.4794  -11.4482   19.9323 C   0  0  0  0  0  0  0  0  0  0  0  0
    2.8970  -10.2853   17.8533 C   0  0  0  0  0  0  0  0  0  0  0  0
    9.9066   -4.1176   17.2835 C   0  0  0  0  0  0  0  0  0  0  0  0
    9.4685   -4.9581   18.3697 C   0  0  0  0  0  0  0  0  0  0  0  0
    6.5959   -6.5143   15.2606 C   0  0  0  0  0  0  0  0  0  0  0  0
    5.7287   -7.9676   16.9587 C   0  0  0  0  0  0  0  0  0  0  0  0
    7.6332   -6.5041   17.3535 C   0  0  0  0  0  0  0  0  0  0  0  0
    3.8550  -10.6808   18.6840 N   0  0  0  0  0  0  0  0  0  0  0  0
   11.0986   -3.3658   21.2207 C   0  0  0  0  0  0  0  0  0  0  0  0
    1.1160  -11.8135   21.0849 C   0  0  0  0  0  0  0  0  0  0  0  0
    4.7306   -8.9915   17.4326 C   0  0  0  0  0  0  0  0  0  0  0  0
   -1.3063  -10.5114   21.2530 C   0  0  0  0  0  0  0  0  0  0  0  0
    3.4124   -9.2810   17.0553 N   0  0  0  0  0  0  0  0  0  0  0  0
    9.4002   -4.2777   15.9890 C   0  0  0  0  0  0  0  0  0  0  0  0
   11.2565   -2.8190   18.8531 C   0  0  0  0  0  0  0  0  0  0  0  0
    1.3860   -9.2081   16.0076 C   0  0  0  0  0  0  0  0  0  0  0  0
   -0.6049  -10.8692   22.4441 C   0  0  0  0  0  0  0  0  0  0  0  0
    7.5780   -5.9951   16.0165 C   0  0  0  0  0  0  0  0  0  0  0  0
   -0.7359  -10.8450   20.0542 C   0  0  0  0  0  0  0  0  0  0  0  0
    1.0240  -11.7443   18.6054 C   0  0  0  0  0  0  0  0  0  0  0  0
    2.6597   -8.7525   16.1422 C   0  0  0  0  0  0  0  0  0  0  0  0
   10.7697   -3.6382   19.8893 C   0  0  0  0  0  0  0  0  0  0  0  0
    1.5848  -10.7455   17.7777 C   0  0  0  0  0  0  0  0  0  0  0  0
    5.6785   -7.4130   15.7047 C   0  0  0  0  0  0  0  0  0  0  0  0
  1 19  2  0
  2 24  4  0
  2 28  4  0
  3 19  1  0
  4 26  4  0
  4 33  4  0
  5 20  4  0
  5 27  4  0
  6 18  4  0
  6 21  4  0
  7 13  4  0
  7 25  4  0
  8 16  4  0
  8 17  4  0
  9 14  4  0
  9 17  4  0
 10 14  4  0
 10 32  4  0
 11 20  4  0
 11 29  4  0
 11 30  1  0
 12 18  4  0
 12 23  4  0
 12 33  4  0
 13 14  4  0
 13 24  4  0
 15 28  4  0
 15 34  4  0
 16 21  1  0
 16 34  4  0
 17 28  4  0
 19 32  1  0
 21 23  4  0
 22 27  4  0
 22 29  4  0
 23 31  4  0
 25 32  4  0
 26 31  4  0
 30 33  1  0
M  END
$$$$

 Created by Python create_sdf_string function

 34 39  0  0  0  0  0  0  0  0999 V2000
   11.7748   -2.4134   21.4869 O   0  0  0  0  0  0  0  0  0  0  0  0
    8.4571   -5.0280   15.5489 C   0  0  0  0  0  0  0  0  0  0  0  0
   10.6373   -4.1527   22.1338 O   0  0  0  0  0  0  0  0  0  0  0  0
    0.8865  -10.1736   16.8062 N   0  0  0  0  0  0  0  0  0  0  0  0
    0.6363  -11.5685   22.3514 C   0  0  0  0  0  0  0  0  0  0  0  0
    4.9382   -9.8865   18.4135 C   0  0  0  0  0  0  0  0  0  0  0  0
   10.8301   -3.1290   17.5832 C   0  0  0  0  0  0  0  0  0  0  0  0
    6.7438   -7.4973   17.7359 C   0  0  0  0  0  0  0  0  0  0  0  0
    8.5781   -5.9390   18.1797 N   0  0  0  0  0  0  0  0  0  0  0  0
    9.9427   -4.7068   19.6371 C   0  0  0  0  0  0  0  0  0  0  0  0
    0.4794  -11.4482   19.9323 C   0  0  0  0  0  0  0  0  0  0  0  0
    2.8970  -10.2853   17.8533 C   0  0  0  0  0  0  0  0  0  0  0  0
    9.9066   -4.1176   17.2835 C   0  0  0  0  0  0  0  0  0  0  0  0
    9.4685   -4.9581   18.3697 C   0  0  0  0  0  0  0  0  0  0  0  0
    6.5959   -6.5143   15.2606 C   0  0  0  0  0  0  0  0  0  0  0  0
    5.7287   -7.9676   16.9587 C   0  0  0  0  0  0  0  0  0  0  0  0
    7.6332   -6.5041   17.3535 C   0  0  0  0  0  0  0  0  0  0  0  0
    3.8550  -10.6808   18.6840 N   0  0  0  0  0  0  0  0  0  0  0  0
   11.0986   -3.3658   21.2207 C   0  0  0  0  0  0  0  0  0  0  0  0
    1.1160  -11.8135   21.0849 C   0  0  0  0  0  0  0  0  0  0  0  0
    4.7306   -8.9915   17.4326 C   0  0  0  0  0  0  0  0  0  0  0  0
   -1.3063  -10.5114   21.2530 C   0  0  0  0  0  0  0  0  0  0  0  0
    3.4124   -9.2810   17.0553 N   0  0  0  0  0  0  0  0  0  0  0  0
    9.4002   -4.2777   15.9890 C   0  0  0  0  0  0  0  0  0  0  0  0
   11.2565   -2.8190   18.8531 C   0  0  0  0  0  0  0  0  0  0  0  0
    1.3860   -9.2081   16.0076 C   0  0  0  0  0  0  0  0  0  0  0  0
   -0.6049  -10.8692   22.4441 C   0  0  0  0  0  0  0  0  0  0  0  0
    7.5780   -5.9951   16.0165 C   0  0  0  0  0  0  0  0  0  0  0  0
   -0.7359  -10.8450   20.0542 C   0  0  0  0  0  0  0  0  0  0  0  0
    1.0240  -11.7443   18.6054 C   0  0  0  0  0  0  0  0  0  0  0  0
    2.6597   -8.7525   16.1422 C   0  0  0  0  0  0  0  0  0  0  0  0
   10.7697   -3.6382   19.8893 C   0  0  0  0  0  0  0  0  0  0  0  0
    1.5848  -10.7455   17.7777 C   0  0  0  0  0  0  0  0  0  0  0  0
    5.6785   -7.4130   15.7047 C   0  0  0  0  0  0  0  0  0  0  0  0
  1 19  2  0
  2 24  4  0
  2 28  4  0
  3 19  1  0
  4 26  4  0
  4 33  4  0
  5 20  4  0
  5 27  4  0
  6 18  4  0
  6 21  4  0
  7 13  4  0
  7 25  4  0
  8 16  4  0
  8 17  4  0
  9 14  4  0
  9 17  4  0
 10 14  4  0
 10 32  4  0
 11 20  4  0
 11 29  4  0
 11 30  1  0
 12 18  4  0
 12 23  4  0
 12 33  4  0
 13 14  4  0
 13 24  4  0
 15 28  4  0
 15 34  4  0
 16 21  1  0
 16 34  4  0
 17 28  4  0
 19 32  1  0
 21 23  4  0
 22 27  4  0
 22 29  4  0
 23 31  4  0
 25 32  4  0
 26 31  4  0
 30 33  1  0
M  END
$$$$

 Created by Python create_sdf_string function

 34 39  0  0  0  0  0  0  0  0999 V2000
   11.7748   -2.4134   21.4869 O   0  0  0  0  0  0  0  0  0  0  0  0
    8.4571   -5.0280   15.5489 C   0  0  0  0  0  0  0  0  0  0  0  0
   10.6373   -4.1527   22.1338 O   0  0  0  0  0  0  0  0  0  0  0  0
    0.8865  -10.1736   16.8062 N   0  0  0  0  0  0  0  0  0  0  0  0
    0.6363  -11.5685   22.3514 C   0  0  0  0  0  0  0  0  0  0  0  0
    4.9382   -9.8865   18.4135 C   0  0  0  0  0  0  0  0  0  0  0  0
   10.8301   -3.1290   17.5832 C   0  0  0  0  0  0  0  0  0  0  0  0
    6.7438   -7.4973   17.7359 C   0  0  0  0  0  0  0  0  0  0  0  0
    8.5781   -5.9390   18.1797 N   0  0  0  0  0  0  0  0  0  0  0  0
    9.9427   -4.7068   19.6371 C   0  0  0  0  0  0  0  0  0  0  0  0
    0.4794  -11.4482   19.9323 C   0  0  0  0  0  0  0  0  0  0  0  0
    2.8970  -10.2853   17.8533 C   0  0  0  0  0  0  0  0  0  0  0  0
    9.9066   -4.1176   17.2835 C   0  0  0  0  0  0  0  0  0  0  0  0
    9.4685   -4.9581   18.3697 C   0  0  0  0  0  0  0  0  0  0  0  0
    6.5959   -6.5143   15.2606 C   0  0  0  0  0  0  0  0  0  0  0  0
    5.7287   -7.9676   16.9587 C   0  0  0  0  0  0  0  0  0  0  0  0
    7.6332   -6.5041   17.3535 C   0  0  0  0  0  0  0  0  0  0  0  0
    3.8550  -10.6808   18.6840 N   0  0  0  0  0  0  0  0  0  0  0  0
   11.0986   -3.3658   21.2207 C   0  0  0  0  0  0  0  0  0  0  0  0
    1.1160  -11.8135   21.0849 C   0  0  0  0  0  0  0  0  0  0  0  0
    4.7306   -8.9915   17.4326 C   0  0  0  0  0  0  0  0  0  0  0  0
   -1.3063  -10.5114   21.2530 C   0  0  0  0  0  0  0  0  0  0  0  0
    3.4124   -9.2810   17.0553 N   0  0  0  0  0  0  0  0  0  0  0  0
    9.4002   -4.2777   15.9890 C   0  0  0  0  0  0  0  0  0  0  0  0
   11.2565   -2.8190   18.8531 C   0  0  0  0  0  0  0  0  0  0  0  0
    1.3860   -9.2081   16.0076 C   0  0  0  0  0  0  0  0  0  0  0  0
   -0.6049  -10.8692   22.4441 C   0  0  0  0  0  0  0  0  0  0  0  0
    7.5780   -5.9951   16.0165 C   0  0  0  0  0  0  0  0  0  0  0  0
   -0.7359  -10.8450   20.0542 C   0  0  0  0  0  0  0  0  0  0  0  0
    1.0240  -11.7443   18.6054 C   0  0  0  0  0  0  0  0  0  0  0  0
    2.6597   -8.7525   16.1422 C   0  0  0  0  0  0  0  0  0  0  0  0
   10.7697   -3.6382   19.8893 C   0  0  0  0  0  0  0  0  0  0  0  0
    1.5848  -10.7455   17.7777 C   0  0  0  0  0  0  0  0  0  0  0  0
    5.6785   -7.4130   15.7047 C   0  0  0  0  0  0  0  0  0  0  0  0
  1 19  2  0
  2 24  4  0
  2 28  4  0
  3 19  1  0
  4 26  4  0
  4 33  4  0
  5 20  4  0
  5 27  4  0
  6 18  4  0
  6 21  4  0
  7 13  4  0
  7 25  4  0
  8 16  4  0
  8 17  4  0
  9 14  4  0
  9 17  4  0
 10 14  4  0
 10 32  4  0
 11 20  4  0
 11 29  4  0
 11 30  1  0
 12 18  4  0
 12 23  4  0
 12 33  4  0
 13 14  4  0
 13 24  4  0
 15 28  4  0
 15 34  4  0
 16 21  1  0
 16 34  4  0
 17 28  4  0
 19 32  1  0
 21 23  4  0
 22 27  4  0
 22 29  4  0
 23 31  4  0
 25 32  4  0
 26 31  4  0
 30 33  1  0
M  END
$$$$

 Created by Python create_sdf_string function

 34 39  0  0  0  0  0  0  0  0999 V2000
   11.7748   -2.4134   21.4869 O   0  0  0  0  0  0  0  0  0  0  0  0
    8.4571   -5.0280   15.5489 C   0  0  0  0  0  0  0  0  0  0  0  0
   10.6373   -4.1527   22.1338 O   0  0  0  0  0  0  0  0  0  0  0  0
    0.8865  -10.1736   16.8062 N   0  0  0  0  0  0  0  0  0  0  0  0
    0.6363  -11.5685   22.3514 C   0  0  0  0  0  0  0  0  0  0  0  0
    4.9382   -9.8865   18.4135 C   0  0  0  0  0  0  0  0  0  0  0  0
   10.8301   -3.1290   17.5832 C   0  0  0  0  0  0  0  0  0  0  0  0
    6.7438   -7.4973   17.7359 C   0  0  0  0  0  0  0  0  0  0  0  0
    8.5781   -5.9390   18.1797 N   0  0  0  0  0  0  0  0  0  0  0  0
    9.9427   -4.7068   19.6371 C   0  0  0  0  0  0  0  0  0  0  0  0
    0.4794  -11.4482   19.9323 C   0  0  0  0  0  0  0  0  0  0  0  0
    2.8970  -10.2853   17.8533 C   0  0  0  0  0  0  0  0  0  0  0  0
    9.9066   -4.1176   17.2835 C   0  0  0  0  0  0  0  0  0  0  0  0
    9.4685   -4.9581   18.3697 C   0  0  0  0  0  0  0  0  0  0  0  0
    6.5959   -6.5143   15.2606 C   0  0  0  0  0  0  0  0  0  0  0  0
    5.7287   -7.9676   16.9587 C   0  0  0  0  0  0  0  0  0  0  0  0
    7.6332   -6.5041   17.3535 C   0  0  0  0  0  0  0  0  0  0  0  0
    3.8550  -10.6808   18.6840 N   0  0  0  0  0  0  0  0  0  0  0  0
   11.0986   -3.3658   21.2207 C   0  0  0  0  0  0  0  0  0  0  0  0
    1.1160  -11.8135   21.0849 C   0  0  0  0  0  0  0  0  0  0  0  0
    4.7306   -8.9915   17.4326 C   0  0  0  0  0  0  0  0  0  0  0  0
   -1.3063  -10.5114   21.2530 C   0  0  0  0  0  0  0  0  0  0  0  0
    3.4124   -9.2810   17.0553 N   0  0  0  0  0  0  0  0  0  0  0  0
    9.4002   -4.2777   15.9890 C   0  0  0  0  0  0  0  0  0  0  0  0
   11.2565   -2.8190   18.8531 C   0  0  0  0  0  0  0  0  0  0  0  0
    1.3860   -9.2081   16.0076 C   0  0  0  0  0  0  0  0  0  0  0  0
   -0.6049  -10.8692   22.4441 C   0  0  0  0  0  0  0  0  0  0  0  0
    7.5780   -5.9951   16.0165 C   0  0  0  0  0  0  0  0  0  0  0  0
   -0.7359  -10.8450   20.0542 C   0  0  0  0  0  0  0  0  0  0  0  0
    1.0240  -11.7443   18.6054 C   0  0  0  0  0  0  0  0  0  0  0  0
    2.6597   -8.7525   16.1422 C   0  0  0  0  0  0  0  0  0  0  0  0
   10.7697   -3.6382   19.8893 C   0  0  0  0  0  0  0  0  0  0  0  0
    1.5848  -10.7455   17.7777 C   0  0  0  0  0  0  0  0  0  0  0  0
    5.6785   -7.4130   15.7047 C   0  0  0  0  0  0  0  0  0  0  0  0
  1 19  2  0
  2 24  4  0
  2 28  4  0
  3 19  1  0
  4 26  4  0
  4 33  4  0
  5 20  4  0
  5 27  4  0
  6 18  4  0
  6 21  4  0
  7 13  4  0
  7 25  4  0
  8 16  4  0
  8 17  4  0
  9 14  4  0
  9 17  4  0
 10 14  4  0
 10 32  4  0
 11 20  4  0
 11 29  4  0
 11 30  1  0
 12 18  4  0
 12 23  4  0
 12 33  4  0
 13 14  4  0
 13 24  4  0
 15 28  4  0
 15 34  4  0
 16 21  1  0
 16 34  4  0
 17 28  4  0
 19 32  1  0
 21 23  4  0
 22 27  4  0
 22 29  4  0
 23 31  4  0
 25 32  4  0
 26 31  4  0
 30 33  1  0
M  END
$$$$

 Created by Python create_sdf_string function

 34 39  0  0  0  0  0  0  0  0999 V2000
   11.7748   -2.4134   21.4869 O   0  0  0  0  0  0  0  0  0  0  0  0
    8.4571   -5.0280   15.5489 C   0  0  0  0  0  0  0  0  0  0  0  0
   10.6373   -4.1527   22.1338 O   0  0  0  0  0  0  0  0  0  0  0  0
    0.8865  -10.1736   16.8062 N   0  0  0  0  0  0  0  0  0  0  0  0
    0.6363  -11.5685   22.3514 C   0  0  0  0  0  0  0  0  0  0  0  0
    4.9382   -9.8865   18.4135 C   0  0  0  0  0  0  0  0  0  0  0  0
   10.8301   -3.1290   17.5832 C   0  0  0  0  0  0  0  0  0  0  0  0
    6.7438   -7.4973   17.7359 C   0  0  0  0  0  0  0  0  0  0  0  0
    8.5781   -5.9390   18.1797 N   0  0  0  0  0  0  0  0  0  0  0  0
    9.9427   -4.7068   19.6371 C   0  0  0  0  0  0  0  0  0  0  0  0
    0.4794  -11.4482   19.9323 C   0  0  0  0  0  0  0  0  0  0  0  0
    2.8970  -10.2853   17.8533 C   0  0  0  0  0  0  0  0  0  0  0  0
    9.9066   -4.1176   17.2835 C   0  0  0  0  0  0  0  0  0  0  0  0
    9.4685   -4.9581   18.3697 C   0  0  0  0  0  0  0  0  0  0  0  0
    6.5959   -6.5143   15.2606 C   0  0  0  0  0  0  0  0  0  0  0  0
    5.7287   -7.9676   16.9587 C   0  0  0  0  0  0  0  0  0  0  0  0
    7.6332   -6.5041   17.3535 C   0  0  0  0  0  0  0  0  0  0  0  0
    3.8550  -10.6808   18.6840 N   0  0  0  0  0  0  0  0  0  0  0  0
   11.0986   -3.3658   21.2207 C   0  0  0  0  0  0  0  0  0  0  0  0
    1.1160  -11.8135   21.0849 C   0  0  0  0  0  0  0  0  0  0  0  0
    4.7306   -8.9915   17.4326 C   0  0  0  0  0  0  0  0  0  0  0  0
   -1.3063  -10.5114   21.2530 C   0  0  0  0  0  0  0  0  0  0  0  0
    3.4124   -9.2810   17.0553 N   0  0  0  0  0  0  0  0  0  0  0  0
    9.4002   -4.2777   15.9890 C   0  0  0  0  0  0  0  0  0  0  0  0
   11.2565   -2.8190   18.8531 C   0  0  0  0  0  0  0  0  0  0  0  0
    1.3860   -9.2081   16.0076 C   0  0  0  0  0  0  0  0  0  0  0  0
   -0.6049  -10.8692   22.4441 C   0  0  0  0  0  0  0  0  0  0  0  0
    7.5780   -5.9951   16.0165 C   0  0  0  0  0  0  0  0  0  0  0  0
   -0.7359  -10.8450   20.0542 C   0  0  0  0  0  0  0  0  0  0  0  0
    1.0240  -11.7443   18.6054 C   0  0  0  0  0  0  0  0  0  0  0  0
    2.6597   -8.7525   16.1422 C   0  0  0  0  0  0  0  0  0  0  0  0
   10.7697   -3.6382   19.8893 C   0  0  0  0  0  0  0  0  0  0  0  0
    1.5848  -10.7455   17.7777 C   0  0  0  0  0  0  0  0  0  0  0  0
    5.6785   -7.4130   15.7047 C   0  0  0  0  0  0  0  0  0  0  0  0
  1 19  2  0
  2 24  4  0
  2 28  4  0
  3 19  1  0
  4 26  4  0
  4 33  4  0
  5 20  4  0
  5 27  4  0
  6 18  4  0
  6 21  4  0
  7 13  4  0
  7 25  4  0
  8 16  4  0
  8 17  4  0
  9 14  4  0
  9 17  4  0
 10 14  4  0
 10 32  4  0
 11 20  4  0
 11 29  4  0
 11 30  1  0
 12 18  4  0
 12 23  4  0
 12 33  4  0
 13 14  4  0
 13 24  4  0
 15 28  4  0
 15 34  4  0
 16 21  1  0
 16 34  4  0
 17 28  4  0
 19 32  1  0
 21 23  4  0
 22 27  4  0
 22 29  4  0
 23 31  4  0
 25 32  4  0
 26 31  4  0
 30 33  1  0
M  END
$$$$

 Created by Python create_sdf_string function

 34 39  0  0  0  0  0  0  0  0999 V2000
   11.7748   -2.4134   21.4869 O   0  0  0  0  0  0  0  0  0  0  0  0
    8.4571   -5.0280   15.5489 C   0  0  0  0  0  0  0  0  0  0  0  0
   10.6373   -4.1527   22.1338 O   0  0  0  0  0  0  0  0  0  0  0  0
    0.8865  -10.1736   16.8062 N   0  0  0  0  0  0  0  0  0  0  0  0
    0.6363  -11.5685   22.3514 C   0  0  0  0  0  0  0  0  0  0  0  0
    4.9382   -9.8865   18.4135 C   0  0  0  0  0  0  0  0  0  0  0  0
   10.8301   -3.1290   17.5832 C   0  0  0  0  0  0  0  0  0  0  0  0
    6.7438   -7.4973   17.7359 C   0  0  0  0  0  0  0  0  0  0  0  0
    8.5781   -5.9390   18.1797 N   0  0  0  0  0  0  0  0  0  0  0  0
    9.9427   -4.7068   19.6371 C   0  0  0  0  0  0  0  0  0  0  0  0
    0.4794  -11.4482   19.9323 C   0  0  0  0  0  0  0  0  0  0  0  0
    2.8970  -10.2853   17.8533 C   0  0  0  0  0  0  0  0  0  0  0  0
    9.9066   -4.1176   17.2835 C   0  0  0  0  0  0  0  0  0  0  0  0
    9.4685   -4.9581   18.3697 C   0  0  0  0  0  0  0  0  0  0  0  0
    6.5959   -6.5143   15.2606 C   0  0  0  0  0  0  0  0  0  0  0  0
    5.7287   -7.9676   16.9587 C   0  0  0  0  0  0  0  0  0  0  0  0
    7.6332   -6.5041   17.3535 C   0  0  0  0  0  0  0  0  0  0  0  0
    3.8550  -10.6808   18.6840 N   0  0  0  0  0  0  0  0  0  0  0  0
   11.0986   -3.3658   21.2207 C   0  0  0  0  0  0  0  0  0  0  0  0
    1.1160  -11.8135   21.0849 C   0  0  0  0  0  0  0  0  0  0  0  0
    4.7306   -8.9915   17.4326 C   0  0  0  0  0  0  0  0  0  0  0  0
   -1.3063  -10.5114   21.2530 C   0  0  0  0  0  0  0  0  0  0  0  0
    3.4124   -9.2810   17.0553 N   0  0  0  0  0  0  0  0  0  0  0  0
    9.4002   -4.2777   15.9890 C   0  0  0  0  0  0  0  0  0  0  0  0
   11.2565   -2.8190   18.8531 C   0  0  0  0  0  0  0  0  0  0  0  0
    1.3860   -9.2081   16.0076 C   0  0  0  0  0  0  0  0  0  0  0  0
   -0.6049  -10.8692   22.4441 C   0  0  0  0  0  0  0  0  0  0  0  0
    7.5780   -5.9951   16.0165 C   0  0  0  0  0  0  0  0  0  0  0  0
   -0.7359  -10.8450   20.0542 C   0  0  0  0  0  0  0  0  0  0  0  0
    1.0240  -11.7443   18.6054 C   0  0  0  0  0  0  0  0  0  0  0  0
    2.6597   -8.7525   16.1422 C   0  0  0  0  0  0  0  0  0  0  0  0
   10.7697   -3.6382   19.8893 C   0  0  0  0  0  0  0  0  0  0  0  0
    1.5848  -10.7455   17.7777 C   0  0  0  0  0  0  0  0  0  0  0  0
    5.6785   -7.4130   15.7047 C   0  0  0  0  0  0  0  0  0  0  0  0
  1 19  2  0
  2 24  4  0
  2 28  4  0
  3 19  1  0
  4 26  4  0
  4 33  4  0
  5 20  4  0
  5 27  4  0
  6 18  4  0
  6 21  4  0
  7 13  4  0
  7 25  4  0
  8 16  4  0
  8 17  4  0
  9 14  4  0
  9 17  4  0
 10 14  4  0
 10 32  4  0
 11 20  4  0
 11 29  4  0
 11 30  1  0
 12 18  4  0
 12 23  4  0
 12 33  4  0
 13 14  4  0
 13 24  4  0
 15 28  4  0
 15 34  4  0
 16 21  1  0
 16 34  4  0
 17 28  4  0
 19 32  1  0
 21 23  4  0
 22 27  4  0
 22 29  4  0
 23 31  4  0
 25 32  4  0
 26 31  4  0
 30 33  1  0
M  END
$$$$

 Created by Python create_sdf_string function

 34 39  0  0  0  0  0  0  0  0999 V2000
   11.7748   -2.4134   21.4869 O   0  0  0  0  0  0  0  0  0  0  0  0
    8.4571   -5.0280   15.5489 C   0  0  0  0  0  0  0  0  0  0  0  0
   10.6373   -4.1527   22.1338 O   0  0  0  0  0  0  0  0  0  0  0  0
    0.8865  -10.1736   16.8062 N   0  0  0  0  0  0  0  0  0  0  0  0
    0.6363  -11.5685   22.3514 C   0  0  0  0  0  0  0  0  0  0  0  0
    4.9382   -9.8865   18.4135 C   0  0  0  0  0  0  0  0  0  0  0  0
   10.8301   -3.1290   17.5832 C   0  0  0  0  0  0  0  0  0  0  0  0
    6.7438   -7.4973   17.7359 C   0  0  0  0  0  0  0  0  0  0  0  0
    8.5781   -5.9390   18.1797 N   0  0  0  0  0  0  0  0  0  0  0  0
    9.9427   -4.7068   19.6371 C   0  0  0  0  0  0  0  0  0  0  0  0
    0.4794  -11.4482   19.9323 C   0  0  0  0  0  0  0  0  0  0  0  0
    2.8970  -10.2853   17.8533 C   0  0  0  0  0  0  0  0  0  0  0  0
    9.9066   -4.1176   17.2835 C   0  0  0  0  0  0  0  0  0  0  0  0
    9.4685   -4.9581   18.3697 C   0  0  0  0  0  0  0  0  0  0  0  0
    6.5959   -6.5143   15.2606 C   0  0  0  0  0  0  0  0  0  0  0  0
    5.7287   -7.9676   16.9587 C   0  0  0  0  0  0  0  0  0  0  0  0
    7.6332   -6.5041   17.3535 C   0  0  0  0  0  0  0  0  0  0  0  0
    3.8550  -10.6808   18.6840 N   0  0  0  0  0  0  0  0  0  0  0  0
   11.0986   -3.3658   21.2207 C   0  0  0  0  0  0  0  0  0  0  0  0
    1.1160  -11.8135   21.0849 C   0  0  0  0  0  0  0  0  0  0  0  0
    4.7306   -8.9915   17.4326 C   0  0  0  0  0  0  0  0  0  0  0  0
   -1.3063  -10.5114   21.2530 C   0  0  0  0  0  0  0  0  0  0  0  0
    3.4124   -9.2810   17.0553 N   0  0  0  0  0  0  0  0  0  0  0  0
    9.4002   -4.2777   15.9890 C   0  0  0  0  0  0  0  0  0  0  0  0
   11.2565   -2.8190   18.8531 C   0  0  0  0  0  0  0  0  0  0  0  0
    1.3860   -9.2081   16.0076 C   0  0  0  0  0  0  0  0  0  0  0  0
   -0.6049  -10.8692   22.4441 C   0  0  0  0  0  0  0  0  0  0  0  0
    7.5780   -5.9951   16.0165 C   0  0  0  0  0  0  0  0  0  0  0  0
   -0.7359  -10.8450   20.0542 C   0  0  0  0  0  0  0  0  0  0  0  0
    1.0240  -11.7443   18.6054 C   0  0  0  0  0  0  0  0  0  0  0  0
    2.6597   -8.7525   16.1422 C   0  0  0  0  0  0  0  0  0  0  0  0
   10.7697   -3.6382   19.8893 C   0  0  0  0  0  0  0  0  0  0  0  0
    1.5848  -10.7455   17.7777 C   0  0  0  0  0  0  0  0  0  0  0  0
    5.6785   -7.4130   15.7047 C   0  0  0  0  0  0  0  0  0  0  0  0
  1 19  2  0
  2 24  4  0
  2 28  4  0
  3 19  1  0
  4 26  4  0
  4 33  4  0
  5 20  4  0
  5 27  4  0
  6 18  4  0
  6 21  4  0
  7 13  4  0
  7 25  4  0
  8 16  4  0
  8 17  4  0
  9 14  4  0
  9 17  4  0
 10 14  4  0
 10 32  4  0
 11 20  4  0
 11 29  4  0
 11 30  1  0
 12 18  4  0
 12 23  4  0
 12 33  4  0
 13 14  4  0
 13 24  4  0
 15 28  4  0
 15 34  4  0
 16 21  1  0
 16 34  4  0
 17 28  4  0
 19 32  1  0
 21 23  4  0
 22 27  4  0
 22 29  4  0
 23 31  4  0
 25 32  4  0
 26 31  4  0
 30 33  1  0
M  END
$$$$

 Created by Python create_sdf_string function

 34 39  0  0  0  0  0  0  0  0999 V2000
   11.7748   -2.4134   21.4869 O   0  0  0  0  0  0  0  0  0  0  0  0
    8.4571   -5.0280   15.5489 C   0  0  0  0  0  0  0  0  0  0  0  0
   10.6373   -4.1527   22.1338 O   0  0  0  0  0  0  0  0  0  0  0  0
    0.8865  -10.1736   16.8062 N   0  0  0  0  0  0  0  0  0  0  0  0
    0.6363  -11.5685   22.3514 C   0  0  0  0  0  0  0  0  0  0  0  0
    4.9382   -9.8865   18.4135 C   0  0  0  0  0  0  0  0  0  0  0  0
   10.8301   -3.1290   17.5832 C   0  0  0  0  0  0  0  0  0  0  0  0
    6.7438   -7.4973   17.7359 C   0  0  0  0  0  0  0  0  0  0  0  0
    8.5781   -5.9390   18.1797 N   0  0  0  0  0  0  0  0  0  0  0  0
    9.9427   -4.7068   19.6371 C   0  0  0  0  0  0  0  0  0  0  0  0
    0.4794  -11.4482   19.9323 C   0  0  0  0  0  0  0  0  0  0  0  0
    2.8970  -10.2853   17.8533 C   0  0  0  0  0  0  0  0  0  0  0  0
    9.9066   -4.1176   17.2835 C   0  0  0  0  0  0  0  0  0  0  0  0
    9.4685   -4.9581   18.3697 C   0  0  0  0  0  0  0  0  0  0  0  0
    6.5959   -6.5143   15.2606 C   0  0  0  0  0  0  0  0  0  0  0  0
    5.7287   -7.9676   16.9587 C   0  0  0  0  0  0  0  0  0  0  0  0
    7.6332   -6.5041   17.3535 C   0  0  0  0  0  0  0  0  0  0  0  0
    3.8550  -10.6808   18.6840 N   0  0  0  0  0  0  0  0  0  0  0  0
   11.0986   -3.3658   21.2207 C   0  0  0  0  0  0  0  0  0  0  0  0
    1.1160  -11.8135   21.0849 C   0  0  0  0  0  0  0  0  0  0  0  0
    4.7306   -8.9915   17.4326 C   0  0  0  0  0  0  0  0  0  0  0  0
   -1.3063  -10.5114   21.2530 C   0  0  0  0  0  0  0  0  0  0  0  0
    3.4124   -9.2810   17.0553 N   0  0  0  0  0  0  0  0  0  0  0  0
    9.4002   -4.2777   15.9890 C   0  0  0  0  0  0  0  0  0  0  0  0
   11.2565   -2.8190   18.8531 C   0  0  0  0  0  0  0  0  0  0  0  0
    1.3860   -9.2081   16.0076 C   0  0  0  0  0  0  0  0  0  0  0  0
   -0.6049  -10.8692   22.4441 C   0  0  0  0  0  0  0  0  0  0  0  0
    7.5780   -5.9951   16.0165 C   0  0  0  0  0  0  0  0  0  0  0  0
   -0.7359  -10.8450   20.0542 C   0  0  0  0  0  0  0  0  0  0  0  0
    1.0240  -11.7443   18.6054 C   0  0  0  0  0  0  0  0  0  0  0  0
    2.6597   -8.7525   16.1422 C   0  0  0  0  0  0  0  0  0  0  0  0
   10.7697   -3.6382   19.8893 C   0  0  0  0  0  0  0  0  0  0  0  0
    1.5848  -10.7455   17.7777 C   0  0  0  0  0  0  0  0  0  0  0  0
    5.6785   -7.4130   15.7047 C   0  0  0  0  0  0  0  0  0  0  0  0
  1 19  2  0
  2 24  4  0
  2 28  4  0
  3 19  1  0
  4 26  4  0
  4 33  4  0
  5 20  4  0
  5 27  4  0
  6 18  4  0
  6 21  4  0
  7 13  4  0
  7 25  4  0
  8 16  4  0
  8 17  4  0
  9 14  4  0
  9 17  4  0
 10 14  4  0
 10 32  4  0
 11 20  4  0
 11 29  4  0
 11 30  1  0
 12 18  4  0
 12 23  4  0
 12 33  4  0
 13 14  4  0
 13 24  4  0
 15 28  4  0
 15 34  4  0
 16 21  1  0
 16 34  4  0
 17 28  4  0
 19 32  1  0
 21 23  4  0
 22 27  4  0
 22 29  4  0
 23 31  4  0
 25 32  4  0
 26 31  4  0
 30 33  1  0
M  END
$$$$

 Created by Python create_sdf_string function

 34 39  0  0  0  0  0  0  0  0999 V2000
   11.7748   -2.4134   21.4869 O   0  0  0  0  0  0  0  0  0  0  0  0
    8.4571   -5.0280   15.5489 C   0  0  0  0  0  0  0  0  0  0  0  0
   10.6373   -4.1527   22.1338 O   0  0  0  0  0  0  0  0  0  0  0  0
    0.8865  -10.1736   16.8062 N   0  0  0  0  0  0  0  0  0  0  0  0
    0.6363  -11.5685   22.3514 C   0  0  0  0  0  0  0  0  0  0  0  0
    4.9382   -9.8865   18.4135 C   0  0  0  0  0  0  0  0  0  0  0  0
   10.8301   -3.1290   17.5832 C   0  0  0  0  0  0  0  0  0  0  0  0
    6.7438   -7.4973   17.7359 C   0  0  0  0  0  0  0  0  0  0  0  0
    8.5781   -5.9390   18.1797 N   0  0  0  0  0  0  0  0  0  0  0  0
    9.9427   -4.7068   19.6371 C   0  0  0  0  0  0  0  0  0  0  0  0
    0.4794  -11.4482   19.9323 C   0  0  0  0  0  0  0  0  0  0  0  0
    2.8970  -10.2853   17.8533 C   0  0  0  0  0  0  0  0  0  0  0  0
    9.9066   -4.1176   17.2835 C   0  0  0  0  0  0  0  0  0  0  0  0
    9.4685   -4.9581   18.3697 C   0  0  0  0  0  0  0  0  0  0  0  0
    6.5959   -6.5143   15.2606 C   0  0  0  0  0  0  0  0  0  0  0  0
    5.7287   -7.9676   16.9587 C   0  0  0  0  0  0  0  0  0  0  0  0
    7.6332   -6.5041   17.3535 C   0  0  0  0  0  0  0  0  0  0  0  0
    3.8550  -10.6808   18.6840 N   0  0  0  0  0  0  0  0  0  0  0  0
   11.0986   -3.3658   21.2207 C   0  0  0  0  0  0  0  0  0  0  0  0
    1.1160  -11.8135   21.0849 C   0  0  0  0  0  0  0  0  0  0  0  0
    4.7306   -8.9915   17.4326 C   0  0  0  0  0  0  0  0  0  0  0  0
   -1.3063  -10.5114   21.2530 C   0  0  0  0  0  0  0  0  0  0  0  0
    3.4124   -9.2810   17.0553 N   0  0  0  0  0  0  0  0  0  0  0  0
    9.4002   -4.2777   15.9890 C   0  0  0  0  0  0  0  0  0  0  0  0
   11.2565   -2.8190   18.8531 C   0  0  0  0  0  0  0  0  0  0  0  0
    1.3860   -9.2081   16.0076 C   0  0  0  0  0  0  0  0  0  0  0  0
   -0.6049  -10.8692   22.4441 C   0  0  0  0  0  0  0  0  0  0  0  0
    7.5780   -5.9951   16.0165 C   0  0  0  0  0  0  0  0  0  0  0  0
   -0.7359  -10.8450   20.0542 C   0  0  0  0  0  0  0  0  0  0  0  0
    1.0240  -11.7443   18.6054 C   0  0  0  0  0  0  0  0  0  0  0  0
    2.6597   -8.7525   16.1422 C   0  0  0  0  0  0  0  0  0  0  0  0
   10.7697   -3.6382   19.8893 C   0  0  0  0  0  0  0  0  0  0  0  0
    1.5848  -10.7455   17.7777 C   0  0  0  0  0  0  0  0  0  0  0  0
    5.6785   -7.4130   15.7047 C   0  0  0  0  0  0  0  0  0  0  0  0
  1 19  2  0
  2 24  4  0
  2 28  4  0
  3 19  1  0
  4 26  4  0
  4 33  4  0
  5 20  4  0
  5 27  4  0
  6 18  4  0
  6 21  4  0
  7 13  4  0
  7 25  4  0
  8 16  4  0
  8 17  4  0
  9 14  4  0
  9 17  4  0
 10 14  4  0
 10 32  4  0
 11 20  4  0
 11 29  4  0
 11 30  1  0
 12 18  4  0
 12 23  4  0
 12 33  4  0
 13 14  4  0
 13 24  4  0
 15 28  4  0
 15 34  4  0
 16 21  1  0
 16 34  4  0
 17 28  4  0
 19 32  1  0
 21 23  4  0
 22 27  4  0
 22 29  4  0
 23 31  4  0
 25 32  4  0
 26 31  4  0
 30 33  1  0
M  END
$$$$

 Created by Python create_sdf_string function

 34 39  0  0  0  0  0  0  0  0999 V2000
   11.7748   -2.4134   21.4869 O   0  0  0  0  0  0  0  0  0  0  0  0
    8.4571   -5.0280   15.5489 C   0  0  0  0  0  0  0  0  0  0  0  0
   10.6373   -4.1527   22.1338 O   0  0  0  0  0  0  0  0  0  0  0  0
    0.8865  -10.1736   16.8062 N   0  0  0  0  0  0  0  0  0  0  0  0
    0.6363  -11.5685   22.3514 C   0  0  0  0  0  0  0  0  0  0  0  0
    4.9382   -9.8865   18.4135 C   0  0  0  0  0  0  0  0  0  0  0  0
   10.8301   -3.1290   17.5832 C   0  0  0  0  0  0  0  0  0  0  0  0
    6.7438   -7.4973   17.7359 C   0  0  0  0  0  0  0  0  0  0  0  0
    8.5781   -5.9390   18.1797 N   0  0  0  0  0  0  0  0  0  0  0  0
    9.9427   -4.7068   19.6371 C   0  0  0  0  0  0  0  0  0  0  0  0
    0.4794  -11.4482   19.9323 C   0  0  0  0  0  0  0  0  0  0  0  0
    2.8970  -10.2853   17.8533 C   0  0  0  0  0  0  0  0  0  0  0  0
    9.9066   -4.1176   17.2835 C   0  0  0  0  0  0  0  0  0  0  0  0
    9.4685   -4.9581   18.3697 C   0  0  0  0  0  0  0  0  0  0  0  0
    6.5959   -6.5143   15.2606 C   0  0  0  0  0  0  0  0  0  0  0  0
    5.7287   -7.9676   16.9587 C   0  0  0  0  0  0  0  0  0  0  0  0
    7.6332   -6.5041   17.3535 C   0  0  0  0  0  0  0  0  0  0  0  0
    3.8550  -10.6808   18.6840 N   0  0  0  0  0  0  0  0  0  0  0  0
   11.0986   -3.3658   21.2207 C   0  0  0  0  0  0  0  0  0  0  0  0
    1.1160  -11.8135   21.0849 C   0  0  0  0  0  0  0  0  0  0  0  0
    4.7306   -8.9915   17.4326 C   0  0  0  0  0  0  0  0  0  0  0  0
   -1.3063  -10.5114   21.2530 C   0  0  0  0  0  0  0  0  0  0  0  0
    3.4124   -9.2810   17.0553 N   0  0  0  0  0  0  0  0  0  0  0  0
    9.4002   -4.2777   15.9890 C   0  0  0  0  0  0  0  0  0  0  0  0
   11.2565   -2.8190   18.8531 C   0  0  0  0  0  0  0  0  0  0  0  0
    1.3860   -9.2081   16.0076 C   0  0  0  0  0  0  0  0  0  0  0  0
   -0.6049  -10.8692   22.4441 C   0  0  0  0  0  0  0  0  0  0  0  0
    7.5780   -5.9951   16.0165 C   0  0  0  0  0  0  0  0  0  0  0  0
   -0.7359  -10.8450   20.0542 C   0  0  0  0  0  0  0  0  0  0  0  0
    1.0240  -11.7443   18.6054 C   0  0  0  0  0  0  0  0  0  0  0  0
    2.6597   -8.7525   16.1422 C   0  0  0  0  0  0  0  0  0  0  0  0
   10.7697   -3.6382   19.8893 C   0  0  0  0  0  0  0  0  0  0  0  0
    1.5848  -10.7455   17.7777 C   0  0  0  0  0  0  0  0  0  0  0  0
    5.6785   -7.4130   15.7047 C   0  0  0  0  0  0  0  0  0  0  0  0
  1 19  2  0
  2 24  4  0
  2 28  4  0
  3 19  1  0
  4 26  4  0
  4 33  4  0
  5 20  4  0
  5 27  4  0
  6 18  4  0
  6 21  4  0
  7 13  4  0
  7 25  4  0
  8 16  4  0
  8 17  4  0
  9 14  4  0
  9 17  4  0
 10 14  4  0
 10 32  4  0
 11 20  4  0
 11 29  4  0
 11 30  1  0
 12 18  4  0
 12 23  4  0
 12 33  4  0
 13 14  4  0
 13 24  4  0
 15 28  4  0
 15 34  4  0
 16 21  1  0
 16 34  4  0
 17 28  4  0
 19 32  1  0
 21 23  4  0
 22 27  4  0
 22 29  4  0
 23 31  4  0
 25 32  4  0
 26 31  4  0
 30 33  1  0
M  END
$$$$

 Created by Python create_sdf_string function

 34 39  0  0  0  0  0  0  0  0999 V2000
   11.7748   -2.4134   21.4869 O   0  0  0  0  0  0  0  0  0  0  0  0
    8.4571   -5.0280   15.5489 C   0  0  0  0  0  0  0  0  0  0  0  0
   10.6373   -4.1527   22.1338 O   0  0  0  0  0  0  0  0  0  0  0  0
    0.8865  -10.1736   16.8062 N   0  0  0  0  0  0  0  0  0  0  0  0
    0.6363  -11.5685   22.3514 C   0  0  0  0  0  0  0  0  0  0  0  0
    4.9382   -9.8865   18.4135 C   0  0  0  0  0  0  0  0  0  0  0  0
   10.8301   -3.1290   17.5832 C   0  0  0  0  0  0  0  0  0  0  0  0
    6.7438   -7.4973   17.7359 C   0  0  0  0  0  0  0  0  0  0  0  0
    8.5781   -5.9390   18.1797 N   0  0  0  0  0  0  0  0  0  0  0  0
    9.9427   -4.7068   19.6371 C   0  0  0  0  0  0  0  0  0  0  0  0
    0.4794  -11.4482   19.9323 C   0  0  0  0  0  0  0  0  0  0  0  0
    2.8970  -10.2853   17.8533 C   0  0  0  0  0  0  0  0  0  0  0  0
    9.9066   -4.1176   17.2835 C   0  0  0  0  0  0  0  0  0  0  0  0
    9.4685   -4.9581   18.3697 C   0  0  0  0  0  0  0  0  0  0  0  0
    6.5959   -6.5143   15.2606 C   0  0  0  0  0  0  0  0  0  0  0  0
    5.7287   -7.9676   16.9587 C   0  0  0  0  0  0  0  0  0  0  0  0
    7.6332   -6.5041   17.3535 C   0  0  0  0  0  0  0  0  0  0  0  0
    3.8550  -10.6808   18.6840 N   0  0  0  0  0  0  0  0  0  0  0  0
   11.0986   -3.3658   21.2207 C   0  0  0  0  0  0  0  0  0  0  0  0
    1.1160  -11.8135   21.0849 C   0  0  0  0  0  0  0  0  0  0  0  0
    4.7306   -8.9915   17.4326 C   0  0  0  0  0  0  0  0  0  0  0  0
   -1.3063  -10.5114   21.2530 C   0  0  0  0  0  0  0  0  0  0  0  0
    3.4124   -9.2810   17.0553 N   0  0  0  0  0  0  0  0  0  0  0  0
    9.4002   -4.2777   15.9890 C   0  0  0  0  0  0  0  0  0  0  0  0
   11.2565   -2.8190   18.8531 C   0  0  0  0  0  0  0  0  0  0  0  0
    1.3860   -9.2081   16.0076 C   0  0  0  0  0  0  0  0  0  0  0  0
   -0.6049  -10.8692   22.4441 C   0  0  0  0  0  0  0  0  0  0  0  0
    7.5780   -5.9951   16.0165 C   0  0  0  0  0  0  0  0  0  0  0  0
   -0.7359  -10.8450   20.0542 C   0  0  0  0  0  0  0  0  0  0  0  0
    1.0240  -11.7443   18.6054 C   0  0  0  0  0  0  0  0  0  0  0  0
    2.6597   -8.7525   16.1422 C   0  0  0  0  0  0  0  0  0  0  0  0
   10.7697   -3.6382   19.8893 C   0  0  0  0  0  0  0  0  0  0  0  0
    1.5848  -10.7455   17.7777 C   0  0  0  0  0  0  0  0  0  0  0  0
    5.6785   -7.4130   15.7047 C   0  0  0  0  0  0  0  0  0  0  0  0
  1 19  2  0
  2 24  4  0
  2 28  4  0
  3 19  1  0
  4 26  4  0
  4 33  4  0
  5 20  4  0
  5 27  4  0
  6 18  4  0
  6 21  4  0
  7 13  4  0
  7 25  4  0
  8 16  4  0
  8 17  4  0
  9 14  4  0
  9 17  4  0
 10 14  4  0
 10 32  4  0
 11 20  4  0
 11 29  4  0
 11 30  1  0
 12 18  4  0
 12 23  4  0
 12 33  4  0
 13 14  4  0
 13 24  4  0
 15 28  4  0
 15 34  4  0
 16 21  1  0
 16 34  4  0
 17 28  4  0
 19 32  1  0
 21 23  4  0
 22 27  4  0
 22 29  4  0
 23 31  4  0
 25 32  4  0
 26 31  4  0
 30 33  1  0
M  END
$$$$

 Created by Python create_sdf_string function

 34 39  0  0  0  0  0  0  0  0999 V2000
   11.7748   -2.4134   21.4869 O   0  0  0  0  0  0  0  0  0  0  0  0
    8.4571   -5.0280   15.5489 C   0  0  0  0  0  0  0  0  0  0  0  0
   10.6373   -4.1527   22.1338 O   0  0  0  0  0  0  0  0  0  0  0  0
    0.8865  -10.1736   16.8062 N   0  0  0  0  0  0  0  0  0  0  0  0
    0.6363  -11.5685   22.3514 C   0  0  0  0  0  0  0  0  0  0  0  0
    4.9382   -9.8865   18.4135 C   0  0  0  0  0  0  0  0  0  0  0  0
   10.8301   -3.1290   17.5832 C   0  0  0  0  0  0  0  0  0  0  0  0
    6.7438   -7.4973   17.7359 C   0  0  0  0  0  0  0  0  0  0  0  0
    8.5781   -5.9390   18.1797 N   0  0  0  0  0  0  0  0  0  0  0  0
    9.9427   -4.7068   19.6371 C   0  0  0  0  0  0  0  0  0  0  0  0
    0.4794  -11.4482   19.9323 C   0  0  0  0  0  0  0  0  0  0  0  0
    2.8970  -10.2853   17.8533 C   0  0  0  0  0  0  0  0  0  0  0  0
    9.9066   -4.1176   17.2835 C   0  0  0  0  0  0  0  0  0  0  0  0
    9.4685   -4.9581   18.3697 C   0  0  0  0  0  0  0  0  0  0  0  0
    6.5959   -6.5143   15.2606 C   0  0  0  0  0  0  0  0  0  0  0  0
    5.7287   -7.9676   16.9587 C   0  0  0  0  0  0  0  0  0  0  0  0
    7.6332   -6.5041   17.3535 C   0  0  0  0  0  0  0  0  0  0  0  0
    3.8550  -10.6808   18.6840 N   0  0  0  0  0  0  0  0  0  0  0  0
   11.0986   -3.3658   21.2207 C   0  0  0  0  0  0  0  0  0  0  0  0
    1.1160  -11.8135   21.0849 C   0  0  0  0  0  0  0  0  0  0  0  0
    4.7306   -8.9915   17.4326 C   0  0  0  0  0  0  0  0  0  0  0  0
   -1.3063  -10.5114   21.2530 C   0  0  0  0  0  0  0  0  0  0  0  0
    3.4124   -9.2810   17.0553 N   0  0  0  0  0  0  0  0  0  0  0  0
    9.4002   -4.2777   15.9890 C   0  0  0  0  0  0  0  0  0  0  0  0
   11.2565   -2.8190   18.8531 C   0  0  0  0  0  0  0  0  0  0  0  0
    1.3860   -9.2081   16.0076 C   0  0  0  0  0  0  0  0  0  0  0  0
   -0.6049  -10.8692   22.4441 C   0  0  0  0  0  0  0  0  0  0  0  0
    7.5780   -5.9951   16.0165 C   0  0  0  0  0  0  0  0  0  0  0  0
   -0.7359  -10.8450   20.0542 C   0  0  0  0  0  0  0  0  0  0  0  0
    1.0240  -11.7443   18.6054 C   0  0  0  0  0  0  0  0  0  0  0  0
    2.6597   -8.7525   16.1422 C   0  0  0  0  0  0  0  0  0  0  0  0
   10.7697   -3.6382   19.8893 C   0  0  0  0  0  0  0  0  0  0  0  0
    1.5848  -10.7455   17.7777 C   0  0  0  0  0  0  0  0  0  0  0  0
    5.6785   -7.4130   15.7047 C   0  0  0  0  0  0  0  0  0  0  0  0
  1 19  2  0
  2 24  4  0
  2 28  4  0
  3 19  1  0
  4 26  4  0
  4 33  4  0
  5 20  4  0
  5 27  4  0
  6 18  4  0
  6 21  4  0
  7 13  4  0
  7 25  4  0
  8 16  4  0
  8 17  4  0
  9 14  4  0
  9 17  4  0
 10 14  4  0
 10 32  4  0
 11 20  4  0
 11 29  4  0
 11 30  1  0
 12 18  4  0
 12 23  4  0
 12 33  4  0
 13 14  4  0
 13 24  4  0
 15 28  4  0
 15 34  4  0
 16 21  1  0
 16 34  4  0
 17 28  4  0
 19 32  1  0
 21 23  4  0
 22 27  4  0
 22 29  4  0
 23 31  4  0
 25 32  4  0
 26 31  4  0
 30 33  1  0
M  END
$$$$

 Created by Python create_sdf_string function

 34 39  0  0  0  0  0  0  0  0999 V2000
   11.7748   -2.4134   21.4869 O   0  0  0  0  0  0  0  0  0  0  0  0
    8.4571   -5.0280   15.5489 C   0  0  0  0  0  0  0  0  0  0  0  0
   10.6373   -4.1527   22.1338 O   0  0  0  0  0  0  0  0  0  0  0  0
    0.8865  -10.1736   16.8062 N   0  0  0  0  0  0  0  0  0  0  0  0
    0.6363  -11.5685   22.3514 C   0  0  0  0  0  0  0  0  0  0  0  0
    4.9382   -9.8865   18.4135 C   0  0  0  0  0  0  0  0  0  0  0  0
   10.8301   -3.1290   17.5832 C   0  0  0  0  0  0  0  0  0  0  0  0
    6.7438   -7.4973   17.7359 C   0  0  0  0  0  0  0  0  0  0  0  0
    8.5781   -5.9390   18.1797 N   0  0  0  0  0  0  0  0  0  0  0  0
    9.9427   -4.7068   19.6371 C   0  0  0  0  0  0  0  0  0  0  0  0
    0.4794  -11.4482   19.9323 C   0  0  0  0  0  0  0  0  0  0  0  0
    2.8970  -10.2853   17.8533 C   0  0  0  0  0  0  0  0  0  0  0  0
    9.9066   -4.1176   17.2835 C   0  0  0  0  0  0  0  0  0  0  0  0
    9.4685   -4.9581   18.3697 C   0  0  0  0  0  0  0  0  0  0  0  0
    6.5959   -6.5143   15.2606 C   0  0  0  0  0  0  0  0  0  0  0  0
    5.7287   -7.9676   16.9587 C   0  0  0  0  0  0  0  0  0  0  0  0
    7.6332   -6.5041   17.3535 C   0  0  0  0  0  0  0  0  0  0  0  0
    3.8550  -10.6808   18.6840 N   0  0  0  0  0  0  0  0  0  0  0  0
   11.0986   -3.3658   21.2207 C   0  0  0  0  0  0  0  0  0  0  0  0
    1.1160  -11.8135   21.0849 C   0  0  0  0  0  0  0  0  0  0  0  0
    4.7306   -8.9915   17.4326 C   0  0  0  0  0  0  0  0  0  0  0  0
   -1.3063  -10.5114   21.2530 C   0  0  0  0  0  0  0  0  0  0  0  0
    3.4124   -9.2810   17.0553 N   0  0  0  0  0  0  0  0  0  0  0  0
    9.4002   -4.2777   15.9890 C   0  0  0  0  0  0  0  0  0  0  0  0
   11.2565   -2.8190   18.8531 C   0  0  0  0  0  0  0  0  0  0  0  0
    1.3860   -9.2081   16.0076 C   0  0  0  0  0  0  0  0  0  0  0  0
   -0.6049  -10.8692   22.4441 C   0  0  0  0  0  0  0  0  0  0  0  0
    7.5780   -5.9951   16.0165 C   0  0  0  0  0  0  0  0  0  0  0  0
   -0.7359  -10.8450   20.0542 C   0  0  0  0  0  0  0  0  0  0  0  0
    1.0240  -11.7443   18.6054 C   0  0  0  0  0  0  0  0  0  0  0  0
    2.6597   -8.7525   16.1422 C   0  0  0  0  0  0  0  0  0  0  0  0
   10.7697   -3.6382   19.8893 C   0  0  0  0  0  0  0  0  0  0  0  0
    1.5848  -10.7455   17.7777 C   0  0  0  0  0  0  0  0  0  0  0  0
    5.6785   -7.4130   15.7047 C   0  0  0  0  0  0  0  0  0  0  0  0
  1 19  2  0
  2 24  4  0
  2 28  4  0
  3 19  1  0
  4 26  4  0
  4 33  4  0
  5 20  4  0
  5 27  4  0
  6 18  4  0
  6 21  4  0
  7 13  4  0
  7 25  4  0
  8 16  4  0
  8 17  4  0
  9 14  4  0
  9 17  4  0
 10 14  4  0
 10 32  4  0
 11 20  4  0
 11 29  4  0
 11 30  1  0
 12 18  4  0
 12 23  4  0
 12 33  4  0
 13 14  4  0
 13 24  4  0
 15 28  4  0
 15 34  4  0
 16 21  1  0
 16 34  4  0
 17 28  4  0
 19 32  1  0
 21 23  4  0
 22 27  4  0
 22 29  4  0
 23 31  4  0
 25 32  4  0
 26 31  4  0
 30 33  1  0
M  END
$$$$

 Created by Python create_sdf_string function

 34 39  0  0  0  0  0  0  0  0999 V2000
   11.7748   -2.4134   21.4869 O   0  0  0  0  0  0  0  0  0  0  0  0
    8.4571   -5.0280   15.5489 C   0  0  0  0  0  0  0  0  0  0  0  0
   10.6373   -4.1527   22.1338 O   0  0  0  0  0  0  0  0  0  0  0  0
    0.8865  -10.1736   16.8062 N   0  0  0  0  0  0  0  0  0  0  0  0
    0.6363  -11.5685   22.3514 C   0  0  0  0  0  0  0  0  0  0  0  0
    4.9382   -9.8865   18.4135 C   0  0  0  0  0  0  0  0  0  0  0  0
   10.8301   -3.1290   17.5832 C   0  0  0  0  0  0  0  0  0  0  0  0
    6.7438   -7.4973   17.7359 C   0  0  0  0  0  0  0  0  0  0  0  0
    8.5781   -5.9390   18.1797 N   0  0  0  0  0  0  0  0  0  0  0  0
    9.9427   -4.7068   19.6371 C   0  0  0  0  0  0  0  0  0  0  0  0
    0.4794  -11.4482   19.9323 C   0  0  0  0  0  0  0  0  0  0  0  0
    2.8970  -10.2853   17.8533 C   0  0  0  0  0  0  0  0  0  0  0  0
    9.9066   -4.1176   17.2835 C   0  0  0  0  0  0  0  0  0  0  0  0
    9.4685   -4.9581   18.3697 C   0  0  0  0  0  0  0  0  0  0  0  0
    6.5959   -6.5143   15.2606 C   0  0  0  0  0  0  0  0  0  0  0  0
    5.7287   -7.9676   16.9587 C   0  0  0  0  0  0  0  0  0  0  0  0
    7.6332   -6.5041   17.3535 C   0  0  0  0  0  0  0  0  0  0  0  0
    3.8550  -10.6808   18.6840 N   0  0  0  0  0  0  0  0  0  0  0  0
   11.0986   -3.3658   21.2207 C   0  0  0  0  0  0  0  0  0  0  0  0
    1.1160  -11.8135   21.0849 C   0  0  0  0  0  0  0  0  0  0  0  0
    4.7306   -8.9915   17.4326 C   0  0  0  0  0  0  0  0  0  0  0  0
   -1.3063  -10.5114   21.2530 C   0  0  0  0  0  0  0  0  0  0  0  0
    3.4124   -9.2810   17.0553 N   0  0  0  0  0  0  0  0  0  0  0  0
    9.4002   -4.2777   15.9890 C   0  0  0  0  0  0  0  0  0  0  0  0
   11.2565   -2.8190   18.8531 C   0  0  0  0  0  0  0  0  0  0  0  0
    1.3860   -9.2081   16.0076 C   0  0  0  0  0  0  0  0  0  0  0  0
   -0.6049  -10.8692   22.4441 C   0  0  0  0  0  0  0  0  0  0  0  0
    7.5780   -5.9951   16.0165 C   0  0  0  0  0  0  0  0  0  0  0  0
   -0.7359  -10.8450   20.0542 C   0  0  0  0  0  0  0  0  0  0  0  0
    1.0240  -11.7443   18.6054 C   0  0  0  0  0  0  0  0  0  0  0  0
    2.6597   -8.7525   16.1422 C   0  0  0  0  0  0  0  0  0  0  0  0
   10.7697   -3.6382   19.8893 C   0  0  0  0  0  0  0  0  0  0  0  0
    1.5848  -10.7455   17.7777 C   0  0  0  0  0  0  0  0  0  0  0  0
    5.6785   -7.4130   15.7047 C   0  0  0  0  0  0  0  0  0  0  0  0
  1 19  2  0
  2 24  4  0
  2 28  4  0
  3 19  1  0
  4 26  4  0
  4 33  4  0
  5 20  4  0
  5 27  4  0
  6 18  4  0
  6 21  4  0
  7 13  4  0
  7 25  4  0
  8 16  4  0
  8 17  4  0
  9 14  4  0
  9 17  4  0
 10 14  4  0
 10 32  4  0
 11 20  4  0
 11 29  4  0
 11 30  1  0
 12 18  4  0
 12 23  4  0
 12 33  4  0
 13 14  4  0
 13 24  4  0
 15 28  4  0
 15 34  4  0
 16 21  1  0
 16 34  4  0
 17 28  4  0
 19 32  1  0
 21 23  4  0
 22 27  4  0
 22 29  4  0
 23 31  4  0
 25 32  4  0
 26 31  4  0
 30 33  1  0
M  END
$$$$

 Created by Python create_sdf_string function

 34 39  0  0  0  0  0  0  0  0999 V2000
   11.7748   -2.4134   21.4869 O   0  0  0  0  0  0  0  0  0  0  0  0
    8.4571   -5.0280   15.5489 C   0  0  0  0  0  0  0  0  0  0  0  0
   10.6373   -4.1527   22.1338 O   0  0  0  0  0  0  0  0  0  0  0  0
    0.8865  -10.1736   16.8062 N   0  0  0  0  0  0  0  0  0  0  0  0
    0.6363  -11.5685   22.3514 C   0  0  0  0  0  0  0  0  0  0  0  0
    4.9382   -9.8865   18.4135 C   0  0  0  0  0  0  0  0  0  0  0  0
   10.8301   -3.1290   17.5832 C   0  0  0  0  0  0  0  0  0  0  0  0
    6.7438   -7.4973   17.7359 C   0  0  0  0  0  0  0  0  0  0  0  0
    8.5781   -5.9390   18.1797 N   0  0  0  0  0  0  0  0  0  0  0  0
    9.9427   -4.7068   19.6371 C   0  0  0  0  0  0  0  0  0  0  0  0
    0.4794  -11.4482   19.9323 C   0  0  0  0  0  0  0  0  0  0  0  0
    2.8970  -10.2853   17.8533 C   0  0  0  0  0  0  0  0  0  0  0  0
    9.9066   -4.1176   17.2835 C   0  0  0  0  0  0  0  0  0  0  0  0
    9.4685   -4.9581   18.3697 C   0  0  0  0  0  0  0  0  0  0  0  0
    6.5959   -6.5143   15.2606 C   0  0  0  0  0  0  0  0  0  0  0  0
    5.7287   -7.9676   16.9587 C   0  0  0  0  0  0  0  0  0  0  0  0
    7.6332   -6.5041   17.3535 C   0  0  0  0  0  0  0  0  0  0  0  0
    3.8550  -10.6808   18.6840 N   0  0  0  0  0  0  0  0  0  0  0  0
   11.0986   -3.3658   21.2207 C   0  0  0  0  0  0  0  0  0  0  0  0
    1.1160  -11.8135   21.0849 C   0  0  0  0  0  0  0  0  0  0  0  0
    4.7306   -8.9915   17.4326 C   0  0  0  0  0  0  0  0  0  0  0  0
   -1.3063  -10.5114   21.2530 C   0  0  0  0  0  0  0  0  0  0  0  0
    3.4124   -9.2810   17.0553 N   0  0  0  0  0  0  0  0  0  0  0  0
    9.4002   -4.2777   15.9890 C   0  0  0  0  0  0  0  0  0  0  0  0
   11.2565   -2.8190   18.8531 C   0  0  0  0  0  0  0  0  0  0  0  0
    1.3860   -9.2081   16.0076 C   0  0  0  0  0  0  0  0  0  0  0  0
   -0.6049  -10.8692   22.4441 C   0  0  0  0  0  0  0  0  0  0  0  0
    7.5780   -5.9951   16.0165 C   0  0  0  0  0  0  0  0  0  0  0  0
   -0.7359  -10.8450   20.0542 C   0  0  0  0  0  0  0  0  0  0  0  0
    1.0240  -11.7443   18.6054 C   0  0  0  0  0  0  0  0  0  0  0  0
    2.6597   -8.7525   16.1422 C   0  0  0  0  0  0  0  0  0  0  0  0
   10.7697   -3.6382   19.8893 C   0  0  0  0  0  0  0  0  0  0  0  0
    1.5848  -10.7455   17.7777 C   0  0  0  0  0  0  0  0  0  0  0  0
    5.6785   -7.4130   15.7047 C   0  0  0  0  0  0  0  0  0  0  0  0
  1 19  2  0
  2 24  4  0
  2 28  4  0
  3 19  1  0
  4 26  4  0
  4 33  4  0
  5 20  4  0
  5 27  4  0
  6 18  4  0
  6 21  4  0
  7 13  4  0
  7 25  4  0
  8 16  4  0
  8 17  4  0
  9 14  4  0
  9 17  4  0
 10 14  4  0
 10 32  4  0
 11 20  4  0
 11 29  4  0
 11 30  1  0
 12 18  4  0
 12 23  4  0
 12 33  4  0
 13 14  4  0
 13 24  4  0
 15 28  4  0
 15 34  4  0
 16 21  1  0
 16 34  4  0
 17 28  4  0
 19 32  1  0
 21 23  4  0
 22 27  4  0
 22 29  4  0
 23 31  4  0
 25 32  4  0
 26 31  4  0
 30 33  1  0
M  END
$$$$

 Created by Python create_sdf_string function

 34 39  0  0  0  0  0  0  0  0999 V2000
   11.7748   -2.4134   21.4869 O   0  0  0  0  0  0  0  0  0  0  0  0
    8.4571   -5.0280   15.5489 C   0  0  0  0  0  0  0  0  0  0  0  0
   10.6373   -4.1527   22.1338 O   0  0  0  0  0  0  0  0  0  0  0  0
    0.8865  -10.1736   16.8062 N   0  0  0  0  0  0  0  0  0  0  0  0
    0.6363  -11.5685   22.3514 C   0  0  0  0  0  0  0  0  0  0  0  0
    4.9382   -9.8865   18.4135 C   0  0  0  0  0  0  0  0  0  0  0  0
   10.8301   -3.1290   17.5832 C   0  0  0  0  0  0  0  0  0  0  0  0
    6.7438   -7.4973   17.7359 C   0  0  0  0  0  0  0  0  0  0  0  0
    8.5781   -5.9390   18.1797 N   0  0  0  0  0  0  0  0  0  0  0  0
    9.9427   -4.7068   19.6371 C   0  0  0  0  0  0  0  0  0  0  0  0
    0.4794  -11.4482   19.9323 C   0  0  0  0  0  0  0  0  0  0  0  0
    2.8970  -10.2853   17.8533 C   0  0  0  0  0  0  0  0  0  0  0  0
    9.9066   -4.1176   17.2835 C   0  0  0  0  0  0  0  0  0  0  0  0
    9.4685   -4.9581   18.3697 C   0  0  0  0  0  0  0  0  0  0  0  0
    6.5959   -6.5143   15.2606 C   0  0  0  0  0  0  0  0  0  0  0  0
    5.7287   -7.9676   16.9587 C   0  0  0  0  0  0  0  0  0  0  0  0
    7.6332   -6.5041   17.3535 C   0  0  0  0  0  0  0  0  0  0  0  0
    3.8550  -10.6808   18.6840 N   0  0  0  0  0  0  0  0  0  0  0  0
   11.0986   -3.3658   21.2207 C   0  0  0  0  0  0  0  0  0  0  0  0
    1.1160  -11.8135   21.0849 C   0  0  0  0  0  0  0  0  0  0  0  0
    4.7306   -8.9915   17.4326 C   0  0  0  0  0  0  0  0  0  0  0  0
   -1.3063  -10.5114   21.2530 C   0  0  0  0  0  0  0  0  0  0  0  0
    3.4124   -9.2810   17.0553 N   0  0  0  0  0  0  0  0  0  0  0  0
    9.4002   -4.2777   15.9890 C   0  0  0  0  0  0  0  0  0  0  0  0
   11.2565   -2.8190   18.8531 C   0  0  0  0  0  0  0  0  0  0  0  0
    1.3860   -9.2081   16.0076 C   0  0  0  0  0  0  0  0  0  0  0  0
   -0.6049  -10.8692   22.4441 C   0  0  0  0  0  0  0  0  0  0  0  0
    7.5780   -5.9951   16.0165 C   0  0  0  0  0  0  0  0  0  0  0  0
   -0.7359  -10.8450   20.0542 C   0  0  0  0  0  0  0  0  0  0  0  0
    1.0240  -11.7443   18.6054 C   0  0  0  0  0  0  0  0  0  0  0  0
    2.6597   -8.7525   16.1422 C   0  0  0  0  0  0  0  0  0  0  0  0
   10.7697   -3.6382   19.8893 C   0  0  0  0  0  0  0  0  0  0  0  0
    1.5848  -10.7455   17.7777 C   0  0  0  0  0  0  0  0  0  0  0  0
    5.6785   -7.4130   15.7047 C   0  0  0  0  0  0  0  0  0  0  0  0
  1 19  2  0
  2 24  4  0
  2 28  4  0
  3 19  1  0
  4 26  4  0
  4 33  4  0
  5 20  4  0
  5 27  4  0
  6 18  4  0
  6 21  4  0
  7 13  4  0
  7 25  4  0
  8 16  4  0
  8 17  4  0
  9 14  4  0
  9 17  4  0
 10 14  4  0
 10 32  4  0
 11 20  4  0
 11 29  4  0
 11 30  1  0
 12 18  4  0
 12 23  4  0
 12 33  4  0
 13 14  4  0
 13 24  4  0
 15 28  4  0
 15 34  4  0
 16 21  1  0
 16 34  4  0
 17 28  4  0
 19 32  1  0
 21 23  4  0
 22 27  4  0
 22 29  4  0
 23 31  4  0
 25 32  4  0
 26 31  4  0
 30 33  1  0
M  END
$$$$

 Created by Python create_sdf_string function

 34 39  0  0  0  0  0  0  0  0999 V2000
   11.7748   -2.4134   21.4869 O   0  0  0  0  0  0  0  0  0  0  0  0
    8.4571   -5.0280   15.5489 C   0  0  0  0  0  0  0  0  0  0  0  0
   10.6373   -4.1527   22.1338 O   0  0  0  0  0  0  0  0  0  0  0  0
    0.8865  -10.1736   16.8062 N   0  0  0  0  0  0  0  0  0  0  0  0
    0.6363  -11.5685   22.3514 C   0  0  0  0  0  0  0  0  0  0  0  0
    4.9382   -9.8865   18.4135 C   0  0  0  0  0  0  0  0  0  0  0  0
   10.8301   -3.1290   17.5832 C   0  0  0  0  0  0  0  0  0  0  0  0
    6.7438   -7.4973   17.7359 C   0  0  0  0  0  0  0  0  0  0  0  0
    8.5781   -5.9390   18.1797 N   0  0  0  0  0  0  0  0  0  0  0  0
    9.9427   -4.7068   19.6371 C   0  0  0  0  0  0  0  0  0  0  0  0
    0.4794  -11.4482   19.9323 C   0  0  0  0  0  0  0  0  0  0  0  0
    2.8970  -10.2853   17.8533 C   0  0  0  0  0  0  0  0  0  0  0  0
    9.9066   -4.1176   17.2835 C   0  0  0  0  0  0  0  0  0  0  0  0
    9.4685   -4.9581   18.3697 C   0  0  0  0  0  0  0  0  0  0  0  0
    6.5959   -6.5143   15.2606 C   0  0  0  0  0  0  0  0  0  0  0  0
    5.7287   -7.9676   16.9587 C   0  0  0  0  0  0  0  0  0  0  0  0
    7.6332   -6.5041   17.3535 C   0  0  0  0  0  0  0  0  0  0  0  0
    3.8550  -10.6808   18.6840 N   0  0  0  0  0  0  0  0  0  0  0  0
   11.0986   -3.3658   21.2207 C   0  0  0  0  0  0  0  0  0  0  0  0
    1.1160  -11.8135   21.0849 C   0  0  0  0  0  0  0  0  0  0  0  0
    4.7306   -8.9915   17.4326 C   0  0  0  0  0  0  0  0  0  0  0  0
   -1.3063  -10.5114   21.2530 C   0  0  0  0  0  0  0  0  0  0  0  0
    3.4124   -9.2810   17.0553 N   0  0  0  0  0  0  0  0  0  0  0  0
    9.4002   -4.2777   15.9890 C   0  0  0  0  0  0  0  0  0  0  0  0
   11.2565   -2.8190   18.8531 C   0  0  0  0  0  0  0  0  0  0  0  0
    1.3860   -9.2081   16.0076 C   0  0  0  0  0  0  0  0  0  0  0  0
   -0.6049  -10.8692   22.4441 C   0  0  0  0  0  0  0  0  0  0  0  0
    7.5780   -5.9951   16.0165 C   0  0  0  0  0  0  0  0  0  0  0  0
   -0.7359  -10.8450   20.0542 C   0  0  0  0  0  0  0  0  0  0  0  0
    1.0240  -11.7443   18.6054 C   0  0  0  0  0  0  0  0  0  0  0  0
    2.6597   -8.7525   16.1422 C   0  0  0  0  0  0  0  0  0  0  0  0
   10.7697   -3.6382   19.8893 C   0  0  0  0  0  0  0  0  0  0  0  0
    1.5848  -10.7455   17.7777 C   0  0  0  0  0  0  0  0  0  0  0  0
    5.6785   -7.4130   15.7047 C   0  0  0  0  0  0  0  0  0  0  0  0
  1 19  2  0
  2 24  4  0
  2 28  4  0
  3 19  1  0
  4 26  4  0
  4 33  4  0
  5 20  4  0
  5 27  4  0
  6 18  4  0
  6 21  4  0
  7 13  4  0
  7 25  4  0
  8 16  4  0
  8 17  4  0
  9 14  4  0
  9 17  4  0
 10 14  4  0
 10 32  4  0
 11 20  4  0
 11 29  4  0
 11 30  1  0
 12 18  4  0
 12 23  4  0
 12 33  4  0
 13 14  4  0
 13 24  4  0
 15 28  4  0
 15 34  4  0
 16 21  1  0
 16 34  4  0
 17 28  4  0
 19 32  1  0
 21 23  4  0
 22 27  4  0
 22 29  4  0
 23 31  4  0
 25 32  4  0
 26 31  4  0
 30 33  1  0
M  END
$$$$

 Created by Python create_sdf_string function

 34 39  0  0  0  0  0  0  0  0999 V2000
   11.7748   -2.4134   21.4869 O   0  0  0  0  0  0  0  0  0  0  0  0
    8.4571   -5.0280   15.5489 C   0  0  0  0  0  0  0  0  0  0  0  0
   10.6373   -4.1527   22.1338 O   0  0  0  0  0  0  0  0  0  0  0  0
    0.8865  -10.1736   16.8062 N   0  0  0  0  0  0  0  0  0  0  0  0
    0.6363  -11.5685   22.3514 C   0  0  0  0  0  0  0  0  0  0  0  0
    4.9382   -9.8865   18.4135 C   0  0  0  0  0  0  0  0  0  0  0  0
   10.8301   -3.1290   17.5832 C   0  0  0  0  0  0  0  0  0  0  0  0
    6.7438   -7.4973   17.7359 C   0  0  0  0  0  0  0  0  0  0  0  0
    8.5781   -5.9390   18.1797 N   0  0  0  0  0  0  0  0  0  0  0  0
    9.9427   -4.7068   19.6371 C   0  0  0  0  0  0  0  0  0  0  0  0
    0.4794  -11.4482   19.9323 C   0  0  0  0  0  0  0  0  0  0  0  0
    2.8970  -10.2853   17.8533 C   0  0  0  0  0  0  0  0  0  0  0  0
    9.9066   -4.1176   17.2835 C   0  0  0  0  0  0  0  0  0  0  0  0
    9.4685   -4.9581   18.3697 C   0  0  0  0  0  0  0  0  0  0  0  0
    6.5959   -6.5143   15.2606 C   0  0  0  0  0  0  0  0  0  0  0  0
    5.7287   -7.9676   16.9587 C   0  0  0  0  0  0  0  0  0  0  0  0
    7.6332   -6.5041   17.3535 C   0  0  0  0  0  0  0  0  0  0  0  0
    3.8550  -10.6808   18.6840 N   0  0  0  0  0  0  0  0  0  0  0  0
   11.0986   -3.3658   21.2207 C   0  0  0  0  0  0  0  0  0  0  0  0
    1.1160  -11.8135   21.0849 C   0  0  0  0  0  0  0  0  0  0  0  0
    4.7306   -8.9915   17.4326 C   0  0  0  0  0  0  0  0  0  0  0  0
   -1.3063  -10.5114   21.2530 C   0  0  0  0  0  0  0  0  0  0  0  0
    3.4124   -9.2810   17.0553 N   0  0  0  0  0  0  0  0  0  0  0  0
    9.4002   -4.2777   15.9890 C   0  0  0  0  0  0  0  0  0  0  0  0
   11.2565   -2.8190   18.8531 C   0  0  0  0  0  0  0  0  0  0  0  0
    1.3860   -9.2081   16.0076 C   0  0  0  0  0  0  0  0  0  0  0  0
   -0.6049  -10.8692   22.4441 C   0  0  0  0  0  0  0  0  0  0  0  0
    7.5780   -5.9951   16.0165 C   0  0  0  0  0  0  0  0  0  0  0  0
   -0.7359  -10.8450   20.0542 C   0  0  0  0  0  0  0  0  0  0  0  0
    1.0240  -11.7443   18.6054 C   0  0  0  0  0  0  0  0  0  0  0  0
    2.6597   -8.7525   16.1422 C   0  0  0  0  0  0  0  0  0  0  0  0
   10.7697   -3.6382   19.8893 C   0  0  0  0  0  0  0  0  0  0  0  0
    1.5848  -10.7455   17.7777 C   0  0  0  0  0  0  0  0  0  0  0  0
    5.6785   -7.4130   15.7047 C   0  0  0  0  0  0  0  0  0  0  0  0
  1 19  2  0
  2 24  4  0
  2 28  4  0
  3 19  1  0
  4 26  4  0
  4 33  4  0
  5 20  4  0
  5 27  4  0
  6 18  4  0
  6 21  4  0
  7 13  4  0
  7 25  4  0
  8 16  4  0
  8 17  4  0
  9 14  4  0
  9 17  4  0
 10 14  4  0
 10 32  4  0
 11 20  4  0
 11 29  4  0
 11 30  1  0
 12 18  4  0
 12 23  4  0
 12 33  4  0
 13 14  4  0
 13 24  4  0
 15 28  4  0
 15 34  4  0
 16 21  1  0
 16 34  4  0
 17 28  4  0
 19 32  1  0
 21 23  4  0
 22 27  4  0
 22 29  4  0
 23 31  4  0
 25 32  4  0
 26 31  4  0
 30 33  1  0
M  END
$$$$

 Created by Python create_sdf_string function

 34 39  0  0  0  0  0  0  0  0999 V2000
   11.7748   -2.4134   21.4869 O   0  0  0  0  0  0  0  0  0  0  0  0
    8.4571   -5.0280   15.5489 C   0  0  0  0  0  0  0  0  0  0  0  0
   10.6373   -4.1527   22.1338 O   0  0  0  0  0  0  0  0  0  0  0  0
    0.8865  -10.1736   16.8062 N   0  0  0  0  0  0  0  0  0  0  0  0
    0.6363  -11.5685   22.3514 C   0  0  0  0  0  0  0  0  0  0  0  0
    4.9382   -9.8865   18.4135 C   0  0  0  0  0  0  0  0  0  0  0  0
   10.8301   -3.1290   17.5832 C   0  0  0  0  0  0  0  0  0  0  0  0
    6.7438   -7.4973   17.7359 C   0  0  0  0  0  0  0  0  0  0  0  0
    8.5781   -5.9390   18.1797 N   0  0  0  0  0  0  0  0  0  0  0  0
    9.9427   -4.7068   19.6371 C   0  0  0  0  0  0  0  0  0  0  0  0
    0.4794  -11.4482   19.9323 C   0  0  0  0  0  0  0  0  0  0  0  0
    2.8970  -10.2853   17.8533 C   0  0  0  0  0  0  0  0  0  0  0  0
    9.9066   -4.1176   17.2835 C   0  0  0  0  0  0  0  0  0  0  0  0
    9.4685   -4.9581   18.3697 C   0  0  0  0  0  0  0  0  0  0  0  0
    6.5959   -6.5143   15.2606 C   0  0  0  0  0  0  0  0  0  0  0  0
    5.7287   -7.9676   16.9587 C   0  0  0  0  0  0  0  0  0  0  0  0
    7.6332   -6.5041   17.3535 C   0  0  0  0  0  0  0  0  0  0  0  0
    3.8550  -10.6808   18.6840 N   0  0  0  0  0  0  0  0  0  0  0  0
   11.0986   -3.3658   21.2207 C   0  0  0  0  0  0  0  0  0  0  0  0
    1.1160  -11.8135   21.0849 C   0  0  0  0  0  0  0  0  0  0  0  0
    4.7306   -8.9915   17.4326 C   0  0  0  0  0  0  0  0  0  0  0  0
   -1.3063  -10.5114   21.2530 C   0  0  0  0  0  0  0  0  0  0  0  0
    3.4124   -9.2810   17.0553 N   0  0  0  0  0  0  0  0  0  0  0  0
    9.4002   -4.2777   15.9890 C   0  0  0  0  0  0  0  0  0  0  0  0
   11.2565   -2.8190   18.8531 C   0  0  0  0  0  0  0  0  0  0  0  0
    1.3860   -9.2081   16.0076 C   0  0  0  0  0  0  0  0  0  0  0  0
   -0.6049  -10.8692   22.4441 C   0  0  0  0  0  0  0  0  0  0  0  0
    7.5780   -5.9951   16.0165 C   0  0  0  0  0  0  0  0  0  0  0  0
   -0.7359  -10.8450   20.0542 C   0  0  0  0  0  0  0  0  0  0  0  0
    1.0240  -11.7443   18.6054 C   0  0  0  0  0  0  0  0  0  0  0  0
    2.6597   -8.7525   16.1422 C   0  0  0  0  0  0  0  0  0  0  0  0
   10.7697   -3.6382   19.8893 C   0  0  0  0  0  0  0  0  0  0  0  0
    1.5848  -10.7455   17.7777 C   0  0  0  0  0  0  0  0  0  0  0  0
    5.6785   -7.4130   15.7047 C   0  0  0  0  0  0  0  0  0  0  0  0
  1 19  2  0
  2 24  4  0
  2 28  4  0
  3 19  1  0
  4 26  4  0
  4 33  4  0
  5 20  4  0
  5 27  4  0
  6 18  4  0
  6 21  4  0
  7 13  4  0
  7 25  4  0
  8 16  4  0
  8 17  4  0
  9 14  4  0
  9 17  4  0
 10 14  4  0
 10 32  4  0
 11 20  4  0
 11 29  4  0
 11 30  1  0
 12 18  4  0
 12 23  4  0
 12 33  4  0
 13 14  4  0
 13 24  4  0
 15 28  4  0
 15 34  4  0
 16 21  1  0
 16 34  4  0
 17 28  4  0
 19 32  1  0
 21 23  4  0
 22 27  4  0
 22 29  4  0
 23 31  4  0
 25 32  4  0
 26 31  4  0
 30 33  1  0
M  END
$$$$

 Created by Python create_sdf_string function

 34 39  0  0  0  0  0  0  0  0999 V2000
   11.7748   -2.4134   21.4869 O   0  0  0  0  0  0  0  0  0  0  0  0
    8.4571   -5.0280   15.5489 C   0  0  0  0  0  0  0  0  0  0  0  0
   10.6373   -4.1527   22.1338 O   0  0  0  0  0  0  0  0  0  0  0  0
    0.8865  -10.1736   16.8062 N   0  0  0  0  0  0  0  0  0  0  0  0
    0.6363  -11.5685   22.3514 C   0  0  0  0  0  0  0  0  0  0  0  0
    4.9382   -9.8865   18.4135 C   0  0  0  0  0  0  0  0  0  0  0  0
   10.8301   -3.1290   17.5832 C   0  0  0  0  0  0  0  0  0  0  0  0
    6.7438   -7.4973   17.7359 C   0  0  0  0  0  0  0  0  0  0  0  0
    8.5781   -5.9390   18.1797 N   0  0  0  0  0  0  0  0  0  0  0  0
    9.9427   -4.7068   19.6371 C   0  0  0  0  0  0  0  0  0  0  0  0
    0.4794  -11.4482   19.9323 C   0  0  0  0  0  0  0  0  0  0  0  0
    2.8970  -10.2853   17.8533 C   0  0  0  0  0  0  0  0  0  0  0  0
    9.9066   -4.1176   17.2835 C   0  0  0  0  0  0  0  0  0  0  0  0
    9.4685   -4.9581   18.3697 C   0  0  0  0  0  0  0  0  0  0  0  0
    6.5959   -6.5143   15.2606 C   0  0  0  0  0  0  0  0  0  0  0  0
    5.7287   -7.9676   16.9587 C   0  0  0  0  0  0  0  0  0  0  0  0
    7.6332   -6.5041   17.3535 C   0  0  0  0  0  0  0  0  0  0  0  0
    3.8550  -10.6808   18.6840 N   0  0  0  0  0  0  0  0  0  0  0  0
   11.0986   -3.3658   21.2207 C   0  0  0  0  0  0  0  0  0  0  0  0
    1.1160  -11.8135   21.0849 C   0  0  0  0  0  0  0  0  0  0  0  0
    4.7306   -8.9915   17.4326 C   0  0  0  0  0  0  0  0  0  0  0  0
   -1.3063  -10.5114   21.2530 C   0  0  0  0  0  0  0  0  0  0  0  0
    3.4124   -9.2810   17.0553 N   0  0  0  0  0  0  0  0  0  0  0  0
    9.4002   -4.2777   15.9890 C   0  0  0  0  0  0  0  0  0  0  0  0
   11.2565   -2.8190   18.8531 C   0  0  0  0  0  0  0  0  0  0  0  0
    1.3860   -9.2081   16.0076 C   0  0  0  0  0  0  0  0  0  0  0  0
   -0.6049  -10.8692   22.4441 C   0  0  0  0  0  0  0  0  0  0  0  0
    7.5780   -5.9951   16.0165 C   0  0  0  0  0  0  0  0  0  0  0  0
   -0.7359  -10.8450   20.0542 C   0  0  0  0  0  0  0  0  0  0  0  0
    1.0240  -11.7443   18.6054 C   0  0  0  0  0  0  0  0  0  0  0  0
    2.6597   -8.7525   16.1422 C   0  0  0  0  0  0  0  0  0  0  0  0
   10.7697   -3.6382   19.8893 C   0  0  0  0  0  0  0  0  0  0  0  0
    1.5848  -10.7455   17.7777 C   0  0  0  0  0  0  0  0  0  0  0  0
    5.6785   -7.4130   15.7047 C   0  0  0  0  0  0  0  0  0  0  0  0
  1 19  2  0
  2 24  4  0
  2 28  4  0
  3 19  1  0
  4 26  4  0
  4 33  4  0
  5 20  4  0
  5 27  4  0
  6 18  4  0
  6 21  4  0
  7 13  4  0
  7 25  4  0
  8 16  4  0
  8 17  4  0
  9 14  4  0
  9 17  4  0
 10 14  4  0
 10 32  4  0
 11 20  4  0
 11 29  4  0
 11 30  1  0
 12 18  4  0
 12 23  4  0
 12 33  4  0
 13 14  4  0
 13 24  4  0
 15 28  4  0
 15 34  4  0
 16 21  1  0
 16 34  4  0
 17 28  4  0
 19 32  1  0
 21 23  4  0
 22 27  4  0
 22 29  4  0
 23 31  4  0
 25 32  4  0
 26 31  4  0
 30 33  1  0
M  END
$$$$

 Created by Python create_sdf_string function

 34 39  0  0  0  0  0  0  0  0999 V2000
   11.7748   -2.4134   21.4869 O   0  0  0  0  0  0  0  0  0  0  0  0
    8.4571   -5.0280   15.5489 C   0  0  0  0  0  0  0  0  0  0  0  0
   10.6373   -4.1527   22.1338 O   0  0  0  0  0  0  0  0  0  0  0  0
    0.8865  -10.1736   16.8062 N   0  0  0  0  0  0  0  0  0  0  0  0
    0.6363  -11.5685   22.3514 C   0  0  0  0  0  0  0  0  0  0  0  0
    4.9382   -9.8865   18.4135 C   0  0  0  0  0  0  0  0  0  0  0  0
   10.8301   -3.1290   17.5832 C   0  0  0  0  0  0  0  0  0  0  0  0
    6.7438   -7.4973   17.7359 C   0  0  0  0  0  0  0  0  0  0  0  0
    8.5781   -5.9390   18.1797 N   0  0  0  0  0  0  0  0  0  0  0  0
    9.9427   -4.7068   19.6371 C   0  0  0  0  0  0  0  0  0  0  0  0
    0.4794  -11.4482   19.9323 C   0  0  0  0  0  0  0  0  0  0  0  0
    2.8970  -10.2853   17.8533 C   0  0  0  0  0  0  0  0  0  0  0  0
    9.9066   -4.1176   17.2835 C   0  0  0  0  0  0  0  0  0  0  0  0
    9.4685   -4.9581   18.3697 C   0  0  0  0  0  0  0  0  0  0  0  0
    6.5959   -6.5143   15.2606 C   0  0  0  0  0  0  0  0  0  0  0  0
    5.7287   -7.9676   16.9587 C   0  0  0  0  0  0  0  0  0  0  0  0
    7.6332   -6.5041   17.3535 C   0  0  0  0  0  0  0  0  0  0  0  0
    3.8550  -10.6808   18.6840 N   0  0  0  0  0  0  0  0  0  0  0  0
   11.0986   -3.3658   21.2207 C   0  0  0  0  0  0  0  0  0  0  0  0
    1.1160  -11.8135   21.0849 C   0  0  0  0  0  0  0  0  0  0  0  0
    4.7306   -8.9915   17.4326 C   0  0  0  0  0  0  0  0  0  0  0  0
   -1.3063  -10.5114   21.2530 C   0  0  0  0  0  0  0  0  0  0  0  0
    3.4124   -9.2810   17.0553 N   0  0  0  0  0  0  0  0  0  0  0  0
    9.4002   -4.2777   15.9890 C   0  0  0  0  0  0  0  0  0  0  0  0
   11.2565   -2.8190   18.8531 C   0  0  0  0  0  0  0  0  0  0  0  0
    1.3860   -9.2081   16.0076 C   0  0  0  0  0  0  0  0  0  0  0  0
   -0.6049  -10.8692   22.4441 C   0  0  0  0  0  0  0  0  0  0  0  0
    7.5780   -5.9951   16.0165 C   0  0  0  0  0  0  0  0  0  0  0  0
   -0.7359  -10.8450   20.0542 C   0  0  0  0  0  0  0  0  0  0  0  0
    1.0240  -11.7443   18.6054 C   0  0  0  0  0  0  0  0  0  0  0  0
    2.6597   -8.7525   16.1422 C   0  0  0  0  0  0  0  0  0  0  0  0
   10.7697   -3.6382   19.8893 C   0  0  0  0  0  0  0  0  0  0  0  0
    1.5848  -10.7455   17.7777 C   0  0  0  0  0  0  0  0  0  0  0  0
    5.6785   -7.4130   15.7047 C   0  0  0  0  0  0  0  0  0  0  0  0
  1 19  2  0
  2 24  4  0
  2 28  4  0
  3 19  1  0
  4 26  4  0
  4 33  4  0
  5 20  4  0
  5 27  4  0
  6 18  4  0
  6 21  4  0
  7 13  4  0
  7 25  4  0
  8 16  4  0
  8 17  4  0
  9 14  4  0
  9 17  4  0
 10 14  4  0
 10 32  4  0
 11 20  4  0
 11 29  4  0
 11 30  1  0
 12 18  4  0
 12 23  4  0
 12 33  4  0
 13 14  4  0
 13 24  4  0
 15 28  4  0
 15 34  4  0
 16 21  1  0
 16 34  4  0
 17 28  4  0
 19 32  1  0
 21 23  4  0
 22 27  4  0
 22 29  4  0
 23 31  4  0
 25 32  4  0
 26 31  4  0
 30 33  1  0
M  END
$$$$

 Created by Python create_sdf_string function

 34 39  0  0  0  0  0  0  0  0999 V2000
   11.7748   -2.4134   21.4869 O   0  0  0  0  0  0  0  0  0  0  0  0
    8.4571   -5.0280   15.5489 C   0  0  0  0  0  0  0  0  0  0  0  0
   10.6373   -4.1527   22.1338 O   0  0  0  0  0  0  0  0  0  0  0  0
    0.8865  -10.1736   16.8062 N   0  0  0  0  0  0  0  0  0  0  0  0
    0.6363  -11.5685   22.3514 C   0  0  0  0  0  0  0  0  0  0  0  0
    4.9382   -9.8865   18.4135 C   0  0  0  0  0  0  0  0  0  0  0  0
   10.8301   -3.1290   17.5832 C   0  0  0  0  0  0  0  0  0  0  0  0
    6.7438   -7.4973   17.7359 C   0  0  0  0  0  0  0  0  0  0  0  0
    8.5781   -5.9390   18.1797 N   0  0  0  0  0  0  0  0  0  0  0  0
    9.9427   -4.7068   19.6371 C   0  0  0  0  0  0  0  0  0  0  0  0
    0.4794  -11.4482   19.9323 C   0  0  0  0  0  0  0  0  0  0  0  0
    2.8970  -10.2853   17.8533 C   0  0  0  0  0  0  0  0  0  0  0  0
    9.9066   -4.1176   17.2835 C   0  0  0  0  0  0  0  0  0  0  0  0
    9.4685   -4.9581   18.3697 C   0  0  0  0  0  0  0  0  0  0  0  0
    6.5959   -6.5143   15.2606 C   0  0  0  0  0  0  0  0  0  0  0  0
    5.7287   -7.9676   16.9587 C   0  0  0  0  0  0  0  0  0  0  0  0
    7.6332   -6.5041   17.3535 C   0  0  0  0  0  0  0  0  0  0  0  0
    3.8550  -10.6808   18.6840 N   0  0  0  0  0  0  0  0  0  0  0  0
   11.0986   -3.3658   21.2207 C   0  0  0  0  0  0  0  0  0  0  0  0
    1.1160  -11.8135   21.0849 C   0  0  0  0  0  0  0  0  0  0  0  0
    4.7306   -8.9915   17.4326 C   0  0  0  0  0  0  0  0  0  0  0  0
   -1.3063  -10.5114   21.2530 C   0  0  0  0  0  0  0  0  0  0  0  0
    3.4124   -9.2810   17.0553 N   0  0  0  0  0  0  0  0  0  0  0  0
    9.4002   -4.2777   15.9890 C   0  0  0  0  0  0  0  0  0  0  0  0
   11.2565   -2.8190   18.8531 C   0  0  0  0  0  0  0  0  0  0  0  0
    1.3860   -9.2081   16.0076 C   0  0  0  0  0  0  0  0  0  0  0  0
   -0.6049  -10.8692   22.4441 C   0  0  0  0  0  0  0  0  0  0  0  0
    7.5780   -5.9951   16.0165 C   0  0  0  0  0  0  0  0  0  0  0  0
   -0.7359  -10.8450   20.0542 C   0  0  0  0  0  0  0  0  0  0  0  0
    1.0240  -11.7443   18.6054 C   0  0  0  0  0  0  0  0  0  0  0  0
    2.6597   -8.7525   16.1422 C   0  0  0  0  0  0  0  0  0  0  0  0
   10.7697   -3.6382   19.8893 C   0  0  0  0  0  0  0  0  0  0  0  0
    1.5848  -10.7455   17.7777 C   0  0  0  0  0  0  0  0  0  0  0  0
    5.6785   -7.4130   15.7047 C   0  0  0  0  0  0  0  0  0  0  0  0
  1 19  2  0
  2 24  4  0
  2 28  4  0
  3 19  1  0
  4 26  4  0
  4 33  4  0
  5 20  4  0
  5 27  4  0
  6 18  4  0
  6 21  4  0
  7 13  4  0
  7 25  4  0
  8 16  4  0
  8 17  4  0
  9 14  4  0
  9 17  4  0
 10 14  4  0
 10 32  4  0
 11 20  4  0
 11 29  4  0
 11 30  1  0
 12 18  4  0
 12 23  4  0
 12 33  4  0
 13 14  4  0
 13 24  4  0
 15 28  4  0
 15 34  4  0
 16 21  1  0
 16 34  4  0
 17 28  4  0
 19 32  1  0
 21 23  4  0
 22 27  4  0
 22 29  4  0
 23 31  4  0
 25 32  4  0
 26 31  4  0
 30 33  1  0
M  END
$$$$

 Created by Python create_sdf_string function

 34 39  0  0  0  0  0  0  0  0999 V2000
   11.7748   -2.4134   21.4869 O   0  0  0  0  0  0  0  0  0  0  0  0
    8.4571   -5.0280   15.5489 C   0  0  0  0  0  0  0  0  0  0  0  0
   10.6373   -4.1527   22.1338 O   0  0  0  0  0  0  0  0  0  0  0  0
    0.8865  -10.1736   16.8062 N   0  0  0  0  0  0  0  0  0  0  0  0
    0.6363  -11.5685   22.3514 C   0  0  0  0  0  0  0  0  0  0  0  0
    4.9382   -9.8865   18.4135 C   0  0  0  0  0  0  0  0  0  0  0  0
   10.8301   -3.1290   17.5832 C   0  0  0  0  0  0  0  0  0  0  0  0
    6.7438   -7.4973   17.7359 C   0  0  0  0  0  0  0  0  0  0  0  0
    8.5781   -5.9390   18.1797 N   0  0  0  0  0  0  0  0  0  0  0  0
    9.9427   -4.7068   19.6371 C   0  0  0  0  0  0  0  0  0  0  0  0
    0.4794  -11.4482   19.9323 C   0  0  0  0  0  0  0  0  0  0  0  0
    2.8970  -10.2853   17.8533 C   0  0  0  0  0  0  0  0  0  0  0  0
    9.9066   -4.1176   17.2835 C   0  0  0  0  0  0  0  0  0  0  0  0
    9.4685   -4.9581   18.3697 C   0  0  0  0  0  0  0  0  0  0  0  0
    6.5959   -6.5143   15.2606 C   0  0  0  0  0  0  0  0  0  0  0  0
    5.7287   -7.9676   16.9587 C   0  0  0  0  0  0  0  0  0  0  0  0
    7.6332   -6.5041   17.3535 C   0  0  0  0  0  0  0  0  0  0  0  0
    3.8550  -10.6808   18.6840 N   0  0  0  0  0  0  0  0  0  0  0  0
   11.0986   -3.3658   21.2207 C   0  0  0  0  0  0  0  0  0  0  0  0
    1.1160  -11.8135   21.0849 C   0  0  0  0  0  0  0  0  0  0  0  0
    4.7306   -8.9915   17.4326 C   0  0  0  0  0  0  0  0  0  0  0  0
   -1.3063  -10.5114   21.2530 C   0  0  0  0  0  0  0  0  0  0  0  0
    3.4124   -9.2810   17.0553 N   0  0  0  0  0  0  0  0  0  0  0  0
    9.4002   -4.2777   15.9890 C   0  0  0  0  0  0  0  0  0  0  0  0
   11.2565   -2.8190   18.8531 C   0  0  0  0  0  0  0  0  0  0  0  0
    1.3860   -9.2081   16.0076 C   0  0  0  0  0  0  0  0  0  0  0  0
   -0.6049  -10.8692   22.4441 C   0  0  0  0  0  0  0  0  0  0  0  0
    7.5780   -5.9951   16.0165 C   0  0  0  0  0  0  0  0  0  0  0  0
   -0.7359  -10.8450   20.0542 C   0  0  0  0  0  0  0  0  0  0  0  0
    1.0240  -11.7443   18.6054 C   0  0  0  0  0  0  0  0  0  0  0  0
    2.6597   -8.7525   16.1422 C   0  0  0  0  0  0  0  0  0  0  0  0
   10.7697   -3.6382   19.8893 C   0  0  0  0  0  0  0  0  0  0  0  0
    1.5848  -10.7455   17.7777 C   0  0  0  0  0  0  0  0  0  0  0  0
    5.6785   -7.4130   15.7047 C   0  0  0  0  0  0  0  0  0  0  0  0
  1 19  2  0
  2 24  4  0
  2 28  4  0
  3 19  1  0
  4 26  4  0
  4 33  4  0
  5 20  4  0
  5 27  4  0
  6 18  4  0
  6 21  4  0
  7 13  4  0
  7 25  4  0
  8 16  4  0
  8 17  4  0
  9 14  4  0
  9 17  4  0
 10 14  4  0
 10 32  4  0
 11 20  4  0
 11 29  4  0
 11 30  1  0
 12 18  4  0
 12 23  4  0
 12 33  4  0
 13 14  4  0
 13 24  4  0
 15 28  4  0
 15 34  4  0
 16 21  1  0
 16 34  4  0
 17 28  4  0
 19 32  1  0
 21 23  4  0
 22 27  4  0
 22 29  4  0
 23 31  4  0
 25 32  4  0
 26 31  4  0
 30 33  1  0
M  END
$$$$

 Created by Python create_sdf_string function

 34 39  0  0  0  0  0  0  0  0999 V2000
   11.7748   -2.4134   21.4869 O   0  0  0  0  0  0  0  0  0  0  0  0
    8.4571   -5.0280   15.5489 C   0  0  0  0  0  0  0  0  0  0  0  0
   10.6373   -4.1527   22.1338 O   0  0  0  0  0  0  0  0  0  0  0  0
    0.8865  -10.1736   16.8062 N   0  0  0  0  0  0  0  0  0  0  0  0
    0.6363  -11.5685   22.3514 C   0  0  0  0  0  0  0  0  0  0  0  0
    4.9382   -9.8865   18.4135 C   0  0  0  0  0  0  0  0  0  0  0  0
   10.8301   -3.1290   17.5832 C   0  0  0  0  0  0  0  0  0  0  0  0
    6.7438   -7.4973   17.7359 C   0  0  0  0  0  0  0  0  0  0  0  0
    8.5781   -5.9390   18.1797 N   0  0  0  0  0  0  0  0  0  0  0  0
    9.9427   -4.7068   19.6371 C   0  0  0  0  0  0  0  0  0  0  0  0
    0.4794  -11.4482   19.9323 C   0  0  0  0  0  0  0  0  0  0  0  0
    2.8970  -10.2853   17.8533 C   0  0  0  0  0  0  0  0  0  0  0  0
    9.9066   -4.1176   17.2835 C   0  0  0  0  0  0  0  0  0  0  0  0
    9.4685   -4.9581   18.3697 C   0  0  0  0  0  0  0  0  0  0  0  0
    6.5959   -6.5143   15.2606 C   0  0  0  0  0  0  0  0  0  0  0  0
    5.7287   -7.9676   16.9587 C   0  0  0  0  0  0  0  0  0  0  0  0
    7.6332   -6.5041   17.3535 C   0  0  0  0  0  0  0  0  0  0  0  0
    3.8550  -10.6808   18.6840 N   0  0  0  0  0  0  0  0  0  0  0  0
   11.0986   -3.3658   21.2207 C   0  0  0  0  0  0  0  0  0  0  0  0
    1.1160  -11.8135   21.0849 C   0  0  0  0  0  0  0  0  0  0  0  0
    4.7306   -8.9915   17.4326 C   0  0  0  0  0  0  0  0  0  0  0  0
   -1.3063  -10.5114   21.2530 C   0  0  0  0  0  0  0  0  0  0  0  0
    3.4124   -9.2810   17.0553 N   0  0  0  0  0  0  0  0  0  0  0  0
    9.4002   -4.2777   15.9890 C   0  0  0  0  0  0  0  0  0  0  0  0
   11.2565   -2.8190   18.8531 C   0  0  0  0  0  0  0  0  0  0  0  0
    1.3860   -9.2081   16.0076 C   0  0  0  0  0  0  0  0  0  0  0  0
   -0.6049  -10.8692   22.4441 C   0  0  0  0  0  0  0  0  0  0  0  0
    7.5780   -5.9951   16.0165 C   0  0  0  0  0  0  0  0  0  0  0  0
   -0.7359  -10.8450   20.0542 C   0  0  0  0  0  0  0  0  0  0  0  0
    1.0240  -11.7443   18.6054 C   0  0  0  0  0  0  0  0  0  0  0  0
    2.6597   -8.7525   16.1422 C   0  0  0  0  0  0  0  0  0  0  0  0
   10.7697   -3.6382   19.8893 C   0  0  0  0  0  0  0  0  0  0  0  0
    1.5848  -10.7455   17.7777 C   0  0  0  0  0  0  0  0  0  0  0  0
    5.6785   -7.4130   15.7047 C   0  0  0  0  0  0  0  0  0  0  0  0
  1 19  2  0
  2 24  4  0
  2 28  4  0
  3 19  1  0
  4 26  4  0
  4 33  4  0
  5 20  4  0
  5 27  4  0
  6 18  4  0
  6 21  4  0
  7 13  4  0
  7 25  4  0
  8 16  4  0
  8 17  4  0
  9 14  4  0
  9 17  4  0
 10 14  4  0
 10 32  4  0
 11 20  4  0
 11 29  4  0
 11 30  1  0
 12 18  4  0
 12 23  4  0
 12 33  4  0
 13 14  4  0
 13 24  4  0
 15 28  4  0
 15 34  4  0
 16 21  1  0
 16 34  4  0
 17 28  4  0
 19 32  1  0
 21 23  4  0
 22 27  4  0
 22 29  4  0
 23 31  4  0
 25 32  4  0
 26 31  4  0
 30 33  1  0
M  END
$$$$

 Created by Python create_sdf_string function

 34 39  0  0  0  0  0  0  0  0999 V2000
   11.7748   -2.4134   21.4869 O   0  0  0  0  0  0  0  0  0  0  0  0
    8.4571   -5.0280   15.5489 C   0  0  0  0  0  0  0  0  0  0  0  0
   10.6373   -4.1527   22.1338 O   0  0  0  0  0  0  0  0  0  0  0  0
    0.8865  -10.1736   16.8062 N   0  0  0  0  0  0  0  0  0  0  0  0
    0.6363  -11.5685   22.3514 C   0  0  0  0  0  0  0  0  0  0  0  0
    4.9382   -9.8865   18.4135 C   0  0  0  0  0  0  0  0  0  0  0  0
   10.8301   -3.1290   17.5832 C   0  0  0  0  0  0  0  0  0  0  0  0
    6.7438   -7.4973   17.7359 C   0  0  0  0  0  0  0  0  0  0  0  0
    8.5781   -5.9390   18.1797 N   0  0  0  0  0  0  0  0  0  0  0  0
    9.9427   -4.7068   19.6371 C   0  0  0  0  0  0  0  0  0  0  0  0
    0.4794  -11.4482   19.9323 C   0  0  0  0  0  0  0  0  0  0  0  0
    2.8970  -10.2853   17.8533 C   0  0  0  0  0  0  0  0  0  0  0  0
    9.9066   -4.1176   17.2835 C   0  0  0  0  0  0  0  0  0  0  0  0
    9.4685   -4.9581   18.3697 C   0  0  0  0  0  0  0  0  0  0  0  0
    6.5959   -6.5143   15.2606 C   0  0  0  0  0  0  0  0  0  0  0  0
    5.7287   -7.9676   16.9587 C   0  0  0  0  0  0  0  0  0  0  0  0
    7.6332   -6.5041   17.3535 C   0  0  0  0  0  0  0  0  0  0  0  0
    3.8550  -10.6808   18.6840 N   0  0  0  0  0  0  0  0  0  0  0  0
   11.0986   -3.3658   21.2207 C   0  0  0  0  0  0  0  0  0  0  0  0
    1.1160  -11.8135   21.0849 C   0  0  0  0  0  0  0  0  0  0  0  0
    4.7306   -8.9915   17.4326 C   0  0  0  0  0  0  0  0  0  0  0  0
   -1.3063  -10.5114   21.2530 C   0  0  0  0  0  0  0  0  0  0  0  0
    3.4124   -9.2810   17.0553 N   0  0  0  0  0  0  0  0  0  0  0  0
    9.4002   -4.2777   15.9890 C   0  0  0  0  0  0  0  0  0  0  0  0
   11.2565   -2.8190   18.8531 C   0  0  0  0  0  0  0  0  0  0  0  0
    1.3860   -9.2081   16.0076 C   0  0  0  0  0  0  0  0  0  0  0  0
   -0.6049  -10.8692   22.4441 C   0  0  0  0  0  0  0  0  0  0  0  0
    7.5780   -5.9951   16.0165 C   0  0  0  0  0  0  0  0  0  0  0  0
   -0.7359  -10.8450   20.0542 C   0  0  0  0  0  0  0  0  0  0  0  0
    1.0240  -11.7443   18.6054 C   0  0  0  0  0  0  0  0  0  0  0  0
    2.6597   -8.7525   16.1422 C   0  0  0  0  0  0  0  0  0  0  0  0
   10.7697   -3.6382   19.8893 C   0  0  0  0  0  0  0  0  0  0  0  0
    1.5848  -10.7455   17.7777 C   0  0  0  0  0  0  0  0  0  0  0  0
    5.6785   -7.4130   15.7047 C   0  0  0  0  0  0  0  0  0  0  0  0
  1 19  2  0
  2 24  4  0
  2 28  4  0
  3 19  1  0
  4 26  4  0
  4 33  4  0
  5 20  4  0
  5 27  4  0
  6 18  4  0
  6 21  4  0
  7 13  4  0
  7 25  4  0
  8 16  4  0
  8 17  4  0
  9 14  4  0
  9 17  4  0
 10 14  4  0
 10 32  4  0
 11 20  4  0
 11 29  4  0
 11 30  1  0
 12 18  4  0
 12 23  4  0
 12 33  4  0
 13 14  4  0
 13 24  4  0
 15 28  4  0
 15 34  4  0
 16 21  1  0
 16 34  4  0
 17 28  4  0
 19 32  1  0
 21 23  4  0
 22 27  4  0
 22 29  4  0
 23 31  4  0
 25 32  4  0
 26 31  4  0
 30 33  1  0
M  END
$$$$

 Created by Python create_sdf_string function

 34 39  0  0  0  0  0  0  0  0999 V2000
   11.7748   -2.4134   21.4869 O   0  0  0  0  0  0  0  0  0  0  0  0
    8.4571   -5.0280   15.5489 C   0  0  0  0  0  0  0  0  0  0  0  0
   10.6373   -4.1527   22.1338 O   0  0  0  0  0  0  0  0  0  0  0  0
    0.8865  -10.1736   16.8062 N   0  0  0  0  0  0  0  0  0  0  0  0
    0.6363  -11.5685   22.3514 C   0  0  0  0  0  0  0  0  0  0  0  0
    4.9382   -9.8865   18.4135 C   0  0  0  0  0  0  0  0  0  0  0  0
   10.8301   -3.1290   17.5832 C   0  0  0  0  0  0  0  0  0  0  0  0
    6.7438   -7.4973   17.7359 C   0  0  0  0  0  0  0  0  0  0  0  0
    8.5781   -5.9390   18.1797 N   0  0  0  0  0  0  0  0  0  0  0  0
    9.9427   -4.7068   19.6371 C   0  0  0  0  0  0  0  0  0  0  0  0
    0.4794  -11.4482   19.9323 C   0  0  0  0  0  0  0  0  0  0  0  0
    2.8970  -10.2853   17.8533 C   0  0  0  0  0  0  0  0  0  0  0  0
    9.9066   -4.1176   17.2835 C   0  0  0  0  0  0  0  0  0  0  0  0
    9.4685   -4.9581   18.3697 C   0  0  0  0  0  0  0  0  0  0  0  0
    6.5959   -6.5143   15.2606 C   0  0  0  0  0  0  0  0  0  0  0  0
    5.7287   -7.9676   16.9587 C   0  0  0  0  0  0  0  0  0  0  0  0
    7.6332   -6.5041   17.3535 C   0  0  0  0  0  0  0  0  0  0  0  0
    3.8550  -10.6808   18.6840 N   0  0  0  0  0  0  0  0  0  0  0  0
   11.0986   -3.3658   21.2207 C   0  0  0  0  0  0  0  0  0  0  0  0
    1.1160  -11.8135   21.0849 C   0  0  0  0  0  0  0  0  0  0  0  0
    4.7306   -8.9915   17.4326 C   0  0  0  0  0  0  0  0  0  0  0  0
   -1.3063  -10.5114   21.2530 C   0  0  0  0  0  0  0  0  0  0  0  0
    3.4124   -9.2810   17.0553 N   0  0  0  0  0  0  0  0  0  0  0  0
    9.4002   -4.2777   15.9890 C   0  0  0  0  0  0  0  0  0  0  0  0
   11.2565   -2.8190   18.8531 C   0  0  0  0  0  0  0  0  0  0  0  0
    1.3860   -9.2081   16.0076 C   0  0  0  0  0  0  0  0  0  0  0  0
   -0.6049  -10.8692   22.4441 C   0  0  0  0  0  0  0  0  0  0  0  0
    7.5780   -5.9951   16.0165 C   0  0  0  0  0  0  0  0  0  0  0  0
   -0.7359  -10.8450   20.0542 C   0  0  0  0  0  0  0  0  0  0  0  0
    1.0240  -11.7443   18.6054 C   0  0  0  0  0  0  0  0  0  0  0  0
    2.6597   -8.7525   16.1422 C   0  0  0  0  0  0  0  0  0  0  0  0
   10.7697   -3.6382   19.8893 C   0  0  0  0  0  0  0  0  0  0  0  0
    1.5848  -10.7455   17.7777 C   0  0  0  0  0  0  0  0  0  0  0  0
    5.6785   -7.4130   15.7047 C   0  0  0  0  0  0  0  0  0  0  0  0
  1 19  2  0
  2 24  4  0
  2 28  4  0
  3 19  1  0
  4 26  4  0
  4 33  4  0
  5 20  4  0
  5 27  4  0
  6 18  4  0
  6 21  4  0
  7 13  4  0
  7 25  4  0
  8 16  4  0
  8 17  4  0
  9 14  4  0
  9 17  4  0
 10 14  4  0
 10 32  4  0
 11 20  4  0
 11 29  4  0
 11 30  1  0
 12 18  4  0
 12 23  4  0
 12 33  4  0
 13 14  4  0
 13 24  4  0
 15 28  4  0
 15 34  4  0
 16 21  1  0
 16 34  4  0
 17 28  4  0
 19 32  1  0
 21 23  4  0
 22 27  4  0
 22 29  4  0
 23 31  4  0
 25 32  4  0
 26 31  4  0
 30 33  1  0
M  END
$$$$

 Created by Python create_sdf_string function

 34 39  0  0  0  0  0  0  0  0999 V2000
   11.7748   -2.4134   21.4869 O   0  0  0  0  0  0  0  0  0  0  0  0
    8.4571   -5.0280   15.5489 C   0  0  0  0  0  0  0  0  0  0  0  0
   10.6373   -4.1527   22.1338 O   0  0  0  0  0  0  0  0  0  0  0  0
    0.8865  -10.1736   16.8062 N   0  0  0  0  0  0  0  0  0  0  0  0
    0.6363  -11.5685   22.3514 C   0  0  0  0  0  0  0  0  0  0  0  0
    4.9382   -9.8865   18.4135 C   0  0  0  0  0  0  0  0  0  0  0  0
   10.8301   -3.1290   17.5832 C   0  0  0  0  0  0  0  0  0  0  0  0
    6.7438   -7.4973   17.7359 C   0  0  0  0  0  0  0  0  0  0  0  0
    8.5781   -5.9390   18.1797 N   0  0  0  0  0  0  0  0  0  0  0  0
    9.9427   -4.7068   19.6371 C   0  0  0  0  0  0  0  0  0  0  0  0
    0.4794  -11.4482   19.9323 C   0  0  0  0  0  0  0  0  0  0  0  0
    2.8970  -10.2853   17.8533 C   0  0  0  0  0  0  0  0  0  0  0  0
    9.9066   -4.1176   17.2835 C   0  0  0  0  0  0  0  0  0  0  0  0
    9.4685   -4.9581   18.3697 C   0  0  0  0  0  0  0  0  0  0  0  0
    6.5959   -6.5143   15.2606 C   0  0  0  0  0  0  0  0  0  0  0  0
    5.7287   -7.9676   16.9587 C   0  0  0  0  0  0  0  0  0  0  0  0
    7.6332   -6.5041   17.3535 C   0  0  0  0  0  0  0  0  0  0  0  0
    3.8550  -10.6808   18.6840 N   0  0  0  0  0  0  0  0  0  0  0  0
   11.0986   -3.3658   21.2207 C   0  0  0  0  0  0  0  0  0  0  0  0
    1.1160  -11.8135   21.0849 C   0  0  0  0  0  0  0  0  0  0  0  0
    4.7306   -8.9915   17.4326 C   0  0  0  0  0  0  0  0  0  0  0  0
   -1.3063  -10.5114   21.2530 C   0  0  0  0  0  0  0  0  0  0  0  0
    3.4124   -9.2810   17.0553 N   0  0  0  0  0  0  0  0  0  0  0  0
    9.4002   -4.2777   15.9890 C   0  0  0  0  0  0  0  0  0  0  0  0
   11.2565   -2.8190   18.8531 C   0  0  0  0  0  0  0  0  0  0  0  0
    1.3860   -9.2081   16.0076 C   0  0  0  0  0  0  0  0  0  0  0  0
   -0.6049  -10.8692   22.4441 C   0  0  0  0  0  0  0  0  0  0  0  0
    7.5780   -5.9951   16.0165 C   0  0  0  0  0  0  0  0  0  0  0  0
   -0.7359  -10.8450   20.0542 C   0  0  0  0  0  0  0  0  0  0  0  0
    1.0240  -11.7443   18.6054 C   0  0  0  0  0  0  0  0  0  0  0  0
    2.6597   -8.7525   16.1422 C   0  0  0  0  0  0  0  0  0  0  0  0
   10.7697   -3.6382   19.8893 C   0  0  0  0  0  0  0  0  0  0  0  0
    1.5848  -10.7455   17.7777 C   0  0  0  0  0  0  0  0  0  0  0  0
    5.6785   -7.4130   15.7047 C   0  0  0  0  0  0  0  0  0  0  0  0
  1 19  2  0
  2 24  4  0
  2 28  4  0
  3 19  1  0
  4 26  4  0
  4 33  4  0
  5 20  4  0
  5 27  4  0
  6 18  4  0
  6 21  4  0
  7 13  4  0
  7 25  4  0
  8 16  4  0
  8 17  4  0
  9 14  4  0
  9 17  4  0
 10 14  4  0
 10 32  4  0
 11 20  4  0
 11 29  4  0
 11 30  1  0
 12 18  4  0
 12 23  4  0
 12 33  4  0
 13 14  4  0
 13 24  4  0
 15 28  4  0
 15 34  4  0
 16 21  1  0
 16 34  4  0
 17 28  4  0
 19 32  1  0
 21 23  4  0
 22 27  4  0
 22 29  4  0
 23 31  4  0
 25 32  4  0
 26 31  4  0
 30 33  1  0
M  END
$$$$

 Created by Python create_sdf_string function

 34 39  0  0  0  0  0  0  0  0999 V2000
   11.7748   -2.4134   21.4869 O   0  0  0  0  0  0  0  0  0  0  0  0
    8.4571   -5.0280   15.5489 C   0  0  0  0  0  0  0  0  0  0  0  0
   10.6373   -4.1527   22.1338 O   0  0  0  0  0  0  0  0  0  0  0  0
    0.8865  -10.1736   16.8062 N   0  0  0  0  0  0  0  0  0  0  0  0
    0.6363  -11.5685   22.3514 C   0  0  0  0  0  0  0  0  0  0  0  0
    4.9382   -9.8865   18.4135 C   0  0  0  0  0  0  0  0  0  0  0  0
   10.8301   -3.1290   17.5832 C   0  0  0  0  0  0  0  0  0  0  0  0
    6.7438   -7.4973   17.7359 C   0  0  0  0  0  0  0  0  0  0  0  0
    8.5781   -5.9390   18.1797 N   0  0  0  0  0  0  0  0  0  0  0  0
    9.9427   -4.7068   19.6371 C   0  0  0  0  0  0  0  0  0  0  0  0
    0.4794  -11.4482   19.9323 C   0  0  0  0  0  0  0  0  0  0  0  0
    2.8970  -10.2853   17.8533 C   0  0  0  0  0  0  0  0  0  0  0  0
    9.9066   -4.1176   17.2835 C   0  0  0  0  0  0  0  0  0  0  0  0
    9.4685   -4.9581   18.3697 C   0  0  0  0  0  0  0  0  0  0  0  0
    6.5959   -6.5143   15.2606 C   0  0  0  0  0  0  0  0  0  0  0  0
    5.7287   -7.9676   16.9587 C   0  0  0  0  0  0  0  0  0  0  0  0
    7.6332   -6.5041   17.3535 C   0  0  0  0  0  0  0  0  0  0  0  0
    3.8550  -10.6808   18.6840 N   0  0  0  0  0  0  0  0  0  0  0  0
   11.0986   -3.3658   21.2207 C   0  0  0  0  0  0  0  0  0  0  0  0
    1.1160  -11.8135   21.0849 C   0  0  0  0  0  0  0  0  0  0  0  0
    4.7306   -8.9915   17.4326 C   0  0  0  0  0  0  0  0  0  0  0  0
   -1.3063  -10.5114   21.2530 C   0  0  0  0  0  0  0  0  0  0  0  0
    3.4124   -9.2810   17.0553 N   0  0  0  0  0  0  0  0  0  0  0  0
    9.4002   -4.2777   15.9890 C   0  0  0  0  0  0  0  0  0  0  0  0
   11.2565   -2.8190   18.8531 C   0  0  0  0  0  0  0  0  0  0  0  0
    1.3860   -9.2081   16.0076 C   0  0  0  0  0  0  0  0  0  0  0  0
   -0.6049  -10.8692   22.4441 C   0  0  0  0  0  0  0  0  0  0  0  0
    7.5780   -5.9951   16.0165 C   0  0  0  0  0  0  0  0  0  0  0  0
   -0.7359  -10.8450   20.0542 C   0  0  0  0  0  0  0  0  0  0  0  0
    1.0240  -11.7443   18.6054 C   0  0  0  0  0  0  0  0  0  0  0  0
    2.6597   -8.7525   16.1422 C   0  0  0  0  0  0  0  0  0  0  0  0
   10.7697   -3.6382   19.8893 C   0  0  0  0  0  0  0  0  0  0  0  0
    1.5848  -10.7455   17.7777 C   0  0  0  0  0  0  0  0  0  0  0  0
    5.6785   -7.4130   15.7047 C   0  0  0  0  0  0  0  0  0  0  0  0
  1 19  2  0
  2 24  4  0
  2 28  4  0
  3 19  1  0
  4 26  4  0
  4 33  4  0
  5 20  4  0
  5 27  4  0
  6 18  4  0
  6 21  4  0
  7 13  4  0
  7 25  4  0
  8 16  4  0
  8 17  4  0
  9 14  4  0
  9 17  4  0
 10 14  4  0
 10 32  4  0
 11 20  4  0
 11 29  4  0
 11 30  1  0
 12 18  4  0
 12 23  4  0
 12 33  4  0
 13 14  4  0
 13 24  4  0
 15 28  4  0
 15 34  4  0
 16 21  1  0
 16 34  4  0
 17 28  4  0
 19 32  1  0
 21 23  4  0
 22 27  4  0
 22 29  4  0
 23 31  4  0
 25 32  4  0
 26 31  4  0
 30 33  1  0
M  END
$$$$

 Created by Python create_sdf_string function

 34 39  0  0  0  0  0  0  0  0999 V2000
   11.7748   -2.4134   21.4869 O   0  0  0  0  0  0  0  0  0  0  0  0
    8.4571   -5.0280   15.5489 C   0  0  0  0  0  0  0  0  0  0  0  0
   10.6373   -4.1527   22.1338 O   0  0  0  0  0  0  0  0  0  0  0  0
    0.8865  -10.1736   16.8062 N   0  0  0  0  0  0  0  0  0  0  0  0
    0.6363  -11.5685   22.3514 C   0  0  0  0  0  0  0  0  0  0  0  0
    4.9382   -9.8865   18.4135 C   0  0  0  0  0  0  0  0  0  0  0  0
   10.8301   -3.1290   17.5832 C   0  0  0  0  0  0  0  0  0  0  0  0
    6.7438   -7.4973   17.7359 C   0  0  0  0  0  0  0  0  0  0  0  0
    8.5781   -5.9390   18.1797 N   0  0  0  0  0  0  0  0  0  0  0  0
    9.9427   -4.7068   19.6371 C   0  0  0  0  0  0  0  0  0  0  0  0
    0.4794  -11.4482   19.9323 C   0  0  0  0  0  0  0  0  0  0  0  0
    2.8970  -10.2853   17.8533 C   0  0  0  0  0  0  0  0  0  0  0  0
    9.9066   -4.1176   17.2835 C   0  0  0  0  0  0  0  0  0  0  0  0
    9.4685   -4.9581   18.3697 C   0  0  0  0  0  0  0  0  0  0  0  0
    6.5959   -6.5143   15.2606 C   0  0  0  0  0  0  0  0  0  0  0  0
    5.7287   -7.9676   16.9587 C   0  0  0  0  0  0  0  0  0  0  0  0
    7.6332   -6.5041   17.3535 C   0  0  0  0  0  0  0  0  0  0  0  0
    3.8550  -10.6808   18.6840 N   0  0  0  0  0  0  0  0  0  0  0  0
   11.0986   -3.3658   21.2207 C   0  0  0  0  0  0  0  0  0  0  0  0
    1.1160  -11.8135   21.0849 C   0  0  0  0  0  0  0  0  0  0  0  0
    4.7306   -8.9915   17.4326 C   0  0  0  0  0  0  0  0  0  0  0  0
   -1.3063  -10.5114   21.2530 C   0  0  0  0  0  0  0  0  0  0  0  0
    3.4124   -9.2810   17.0553 N   0  0  0  0  0  0  0  0  0  0  0  0
    9.4002   -4.2777   15.9890 C   0  0  0  0  0  0  0  0  0  0  0  0
   11.2565   -2.8190   18.8531 C   0  0  0  0  0  0  0  0  0  0  0  0
    1.3860   -9.2081   16.0076 C   0  0  0  0  0  0  0  0  0  0  0  0
   -0.6049  -10.8692   22.4441 C   0  0  0  0  0  0  0  0  0  0  0  0
    7.5780   -5.9951   16.0165 C   0  0  0  0  0  0  0  0  0  0  0  0
   -0.7359  -10.8450   20.0542 C   0  0  0  0  0  0  0  0  0  0  0  0
    1.0240  -11.7443   18.6054 C   0  0  0  0  0  0  0  0  0  0  0  0
    2.6597   -8.7525   16.1422 C   0  0  0  0  0  0  0  0  0  0  0  0
   10.7697   -3.6382   19.8893 C   0  0  0  0  0  0  0  0  0  0  0  0
    1.5848  -10.7455   17.7777 C   0  0  0  0  0  0  0  0  0  0  0  0
    5.6785   -7.4130   15.7047 C   0  0  0  0  0  0  0  0  0  0  0  0
  1 19  2  0
  2 24  4  0
  2 28  4  0
  3 19  1  0
  4 26  4  0
  4 33  4  0
  5 20  4  0
  5 27  4  0
  6 18  4  0
  6 21  4  0
  7 13  4  0
  7 25  4  0
  8 16  4  0
  8 17  4  0
  9 14  4  0
  9 17  4  0
 10 14  4  0
 10 32  4  0
 11 20  4  0
 11 29  4  0
 11 30  1  0
 12 18  4  0
 12 23  4  0
 12 33  4  0
 13 14  4  0
 13 24  4  0
 15 28  4  0
 15 34  4  0
 16 21  1  0
 16 34  4  0
 17 28  4  0
 19 32  1  0
 21 23  4  0
 22 27  4  0
 22 29  4  0
 23 31  4  0
 25 32  4  0
 26 31  4  0
 30 33  1  0
M  END
$$$$

 Created by Python create_sdf_string function

 34 39  0  0  0  0  0  0  0  0999 V2000
   11.7748   -2.4134   21.4869 O   0  0  0  0  0  0  0  0  0  0  0  0
    8.4571   -5.0280   15.5489 C   0  0  0  0  0  0  0  0  0  0  0  0
   10.6373   -4.1527   22.1338 O   0  0  0  0  0  0  0  0  0  0  0  0
    0.8865  -10.1736   16.8062 N   0  0  0  0  0  0  0  0  0  0  0  0
    0.6363  -11.5685   22.3514 C   0  0  0  0  0  0  0  0  0  0  0  0
    4.9382   -9.8865   18.4135 C   0  0  0  0  0  0  0  0  0  0  0  0
   10.8301   -3.1290   17.5832 C   0  0  0  0  0  0  0  0  0  0  0  0
    6.7438   -7.4973   17.7359 C   0  0  0  0  0  0  0  0  0  0  0  0
    8.5781   -5.9390   18.1797 N   0  0  0  0  0  0  0  0  0  0  0  0
    9.9427   -4.7068   19.6371 C   0  0  0  0  0  0  0  0  0  0  0  0
    0.4794  -11.4482   19.9323 C   0  0  0  0  0  0  0  0  0  0  0  0
    2.8970  -10.2853   17.8533 C   0  0  0  0  0  0  0  0  0  0  0  0
    9.9066   -4.1176   17.2835 C   0  0  0  0  0  0  0  0  0  0  0  0
    9.4685   -4.9581   18.3697 C   0  0  0  0  0  0  0  0  0  0  0  0
    6.5959   -6.5143   15.2606 C   0  0  0  0  0  0  0  0  0  0  0  0
    5.7287   -7.9676   16.9587 C   0  0  0  0  0  0  0  0  0  0  0  0
    7.6332   -6.5041   17.3535 C   0  0  0  0  0  0  0  0  0  0  0  0
    3.8550  -10.6808   18.6840 N   0  0  0  0  0  0  0  0  0  0  0  0
   11.0986   -3.3658   21.2207 C   0  0  0  0  0  0  0  0  0  0  0  0
    1.1160  -11.8135   21.0849 C   0  0  0  0  0  0  0  0  0  0  0  0
    4.7306   -8.9915   17.4326 C   0  0  0  0  0  0  0  0  0  0  0  0
   -1.3063  -10.5114   21.2530 C   0  0  0  0  0  0  0  0  0  0  0  0
    3.4124   -9.2810   17.0553 N   0  0  0  0  0  0  0  0  0  0  0  0
    9.4002   -4.2777   15.9890 C   0  0  0  0  0  0  0  0  0  0  0  0
   11.2565   -2.8190   18.8531 C   0  0  0  0  0  0  0  0  0  0  0  0
    1.3860   -9.2081   16.0076 C   0  0  0  0  0  0  0  0  0  0  0  0
   -0.6049  -10.8692   22.4441 C   0  0  0  0  0  0  0  0  0  0  0  0
    7.5780   -5.9951   16.0165 C   0  0  0  0  0  0  0  0  0  0  0  0
   -0.7359  -10.8450   20.0542 C   0  0  0  0  0  0  0  0  0  0  0  0
    1.0240  -11.7443   18.6054 C   0  0  0  0  0  0  0  0  0  0  0  0
    2.6597   -8.7525   16.1422 C   0  0  0  0  0  0  0  0  0  0  0  0
   10.7697   -3.6382   19.8893 C   0  0  0  0  0  0  0  0  0  0  0  0
    1.5848  -10.7455   17.7777 C   0  0  0  0  0  0  0  0  0  0  0  0
    5.6785   -7.4130   15.7047 C   0  0  0  0  0  0  0  0  0  0  0  0
  1 19  2  0
  2 24  4  0
  2 28  4  0
  3 19  1  0
  4 26  4  0
  4 33  4  0
  5 20  4  0
  5 27  4  0
  6 18  4  0
  6 21  4  0
  7 13  4  0
  7 25  4  0
  8 16  4  0
  8 17  4  0
  9 14  4  0
  9 17  4  0
 10 14  4  0
 10 32  4  0
 11 20  4  0
 11 29  4  0
 11 30  1  0
 12 18  4  0
 12 23  4  0
 12 33  4  0
 13 14  4  0
 13 24  4  0
 15 28  4  0
 15 34  4  0
 16 21  1  0
 16 34  4  0
 17 28  4  0
 19 32  1  0
 21 23  4  0
 22 27  4  0
 22 29  4  0
 23 31  4  0
 25 32  4  0
 26 31  4  0
 30 33  1  0
M  END
$$$$

 Created by Python create_sdf_string function

 34 39  0  0  0  0  0  0  0  0999 V2000
   11.7748   -2.4134   21.4869 O   0  0  0  0  0  0  0  0  0  0  0  0
    8.4571   -5.0280   15.5489 C   0  0  0  0  0  0  0  0  0  0  0  0
   10.6373   -4.1527   22.1338 O   0  0  0  0  0  0  0  0  0  0  0  0
    0.8865  -10.1736   16.8062 N   0  0  0  0  0  0  0  0  0  0  0  0
    0.6363  -11.5685   22.3514 C   0  0  0  0  0  0  0  0  0  0  0  0
    4.9382   -9.8865   18.4135 C   0  0  0  0  0  0  0  0  0  0  0  0
   10.8301   -3.1290   17.5832 C   0  0  0  0  0  0  0  0  0  0  0  0
    6.7438   -7.4973   17.7359 C   0  0  0  0  0  0  0  0  0  0  0  0
    8.5781   -5.9390   18.1797 N   0  0  0  0  0  0  0  0  0  0  0  0
    9.9427   -4.7068   19.6371 C   0  0  0  0  0  0  0  0  0  0  0  0
    0.4794  -11.4482   19.9323 C   0  0  0  0  0  0  0  0  0  0  0  0
    2.8970  -10.2853   17.8533 C   0  0  0  0  0  0  0  0  0  0  0  0
    9.9066   -4.1176   17.2835 C   0  0  0  0  0  0  0  0  0  0  0  0
    9.4685   -4.9581   18.3697 C   0  0  0  0  0  0  0  0  0  0  0  0
    6.5959   -6.5143   15.2606 C   0  0  0  0  0  0  0  0  0  0  0  0
    5.7287   -7.9676   16.9587 C   0  0  0  0  0  0  0  0  0  0  0  0
    7.6332   -6.5041   17.3535 C   0  0  0  0  0  0  0  0  0  0  0  0
    3.8550  -10.6808   18.6840 N   0  0  0  0  0  0  0  0  0  0  0  0
   11.0986   -3.3658   21.2207 C   0  0  0  0  0  0  0  0  0  0  0  0
    1.1160  -11.8135   21.0849 C   0  0  0  0  0  0  0  0  0  0  0  0
    4.7306   -8.9915   17.4326 C   0  0  0  0  0  0  0  0  0  0  0  0
   -1.3063  -10.5114   21.2530 C   0  0  0  0  0  0  0  0  0  0  0  0
    3.4124   -9.2810   17.0553 N   0  0  0  0  0  0  0  0  0  0  0  0
    9.4002   -4.2777   15.9890 C   0  0  0  0  0  0  0  0  0  0  0  0
   11.2565   -2.8190   18.8531 C   0  0  0  0  0  0  0  0  0  0  0  0
    1.3860   -9.2081   16.0076 C   0  0  0  0  0  0  0  0  0  0  0  0
   -0.6049  -10.8692   22.4441 C   0  0  0  0  0  0  0  0  0  0  0  0
    7.5780   -5.9951   16.0165 C   0  0  0  0  0  0  0  0  0  0  0  0
   -0.7359  -10.8450   20.0542 C   0  0  0  0  0  0  0  0  0  0  0  0
    1.0240  -11.7443   18.6054 C   0  0  0  0  0  0  0  0  0  0  0  0
    2.6597   -8.7525   16.1422 C   0  0  0  0  0  0  0  0  0  0  0  0
   10.7697   -3.6382   19.8893 C   0  0  0  0  0  0  0  0  0  0  0  0
    1.5848  -10.7455   17.7777 C   0  0  0  0  0  0  0  0  0  0  0  0
    5.6785   -7.4130   15.7047 C   0  0  0  0  0  0  0  0  0  0  0  0
  1 19  2  0
  2 24  4  0
  2 28  4  0
  3 19  1  0
  4 26  4  0
  4 33  4  0
  5 20  4  0
  5 27  4  0
  6 18  4  0
  6 21  4  0
  7 13  4  0
  7 25  4  0
  8 16  4  0
  8 17  4  0
  9 14  4  0
  9 17  4  0
 10 14  4  0
 10 32  4  0
 11 20  4  0
 11 29  4  0
 11 30  1  0
 12 18  4  0
 12 23  4  0
 12 33  4  0
 13 14  4  0
 13 24  4  0
 15 28  4  0
 15 34  4  0
 16 21  1  0
 16 34  4  0
 17 28  4  0
 19 32  1  0
 21 23  4  0
 22 27  4  0
 22 29  4  0
 23 31  4  0
 25 32  4  0
 26 31  4  0
 30 33  1  0
M  END
$$$$

 Created by Python create_sdf_string function

 34 39  0  0  0  0  0  0  0  0999 V2000
   11.7748   -2.4134   21.4869 O   0  0  0  0  0  0  0  0  0  0  0  0
    8.4571   -5.0280   15.5489 C   0  0  0  0  0  0  0  0  0  0  0  0
   10.6373   -4.1527   22.1338 O   0  0  0  0  0  0  0  0  0  0  0  0
    0.8865  -10.1736   16.8062 N   0  0  0  0  0  0  0  0  0  0  0  0
    0.6363  -11.5685   22.3514 C   0  0  0  0  0  0  0  0  0  0  0  0
    4.9382   -9.8865   18.4135 C   0  0  0  0  0  0  0  0  0  0  0  0
   10.8301   -3.1290   17.5832 C   0  0  0  0  0  0  0  0  0  0  0  0
    6.7438   -7.4973   17.7359 C   0  0  0  0  0  0  0  0  0  0  0  0
    8.5781   -5.9390   18.1797 N   0  0  0  0  0  0  0  0  0  0  0  0
    9.9427   -4.7068   19.6371 C   0  0  0  0  0  0  0  0  0  0  0  0
    0.4794  -11.4482   19.9323 C   0  0  0  0  0  0  0  0  0  0  0  0
    2.8970  -10.2853   17.8533 C   0  0  0  0  0  0  0  0  0  0  0  0
    9.9066   -4.1176   17.2835 C   0  0  0  0  0  0  0  0  0  0  0  0
    9.4685   -4.9581   18.3697 C   0  0  0  0  0  0  0  0  0  0  0  0
    6.5959   -6.5143   15.2606 C   0  0  0  0  0  0  0  0  0  0  0  0
    5.7287   -7.9676   16.9587 C   0  0  0  0  0  0  0  0  0  0  0  0
    7.6332   -6.5041   17.3535 C   0  0  0  0  0  0  0  0  0  0  0  0
    3.8550  -10.6808   18.6840 N   0  0  0  0  0  0  0  0  0  0  0  0
   11.0986   -3.3658   21.2207 C   0  0  0  0  0  0  0  0  0  0  0  0
    1.1160  -11.8135   21.0849 C   0  0  0  0  0  0  0  0  0  0  0  0
    4.7306   -8.9915   17.4326 C   0  0  0  0  0  0  0  0  0  0  0  0
   -1.3063  -10.5114   21.2530 C   0  0  0  0  0  0  0  0  0  0  0  0
    3.4124   -9.2810   17.0553 N   0  0  0  0  0  0  0  0  0  0  0  0
    9.4002   -4.2777   15.9890 C   0  0  0  0  0  0  0  0  0  0  0  0
   11.2565   -2.8190   18.8531 C   0  0  0  0  0  0  0  0  0  0  0  0
    1.3860   -9.2081   16.0076 C   0  0  0  0  0  0  0  0  0  0  0  0
   -0.6049  -10.8692   22.4441 C   0  0  0  0  0  0  0  0  0  0  0  0
    7.5780   -5.9951   16.0165 C   0  0  0  0  0  0  0  0  0  0  0  0
   -0.7359  -10.8450   20.0542 C   0  0  0  0  0  0  0  0  0  0  0  0
    1.0240  -11.7443   18.6054 C   0  0  0  0  0  0  0  0  0  0  0  0
    2.6597   -8.7525   16.1422 C   0  0  0  0  0  0  0  0  0  0  0  0
   10.7697   -3.6382   19.8893 C   0  0  0  0  0  0  0  0  0  0  0  0
    1.5848  -10.7455   17.7777 C   0  0  0  0  0  0  0  0  0  0  0  0
    5.6785   -7.4130   15.7047 C   0  0  0  0  0  0  0  0  0  0  0  0
  1 19  2  0
  2 24  4  0
  2 28  4  0
  3 19  1  0
  4 26  4  0
  4 33  4  0
  5 20  4  0
  5 27  4  0
  6 18  4  0
  6 21  4  0
  7 13  4  0
  7 25  4  0
  8 16  4  0
  8 17  4  0
  9 14  4  0
  9 17  4  0
 10 14  4  0
 10 32  4  0
 11 20  4  0
 11 29  4  0
 11 30  1  0
 12 18  4  0
 12 23  4  0
 12 33  4  0
 13 14  4  0
 13 24  4  0
 15 28  4  0
 15 34  4  0
 16 21  1  0
 16 34  4  0
 17 28  4  0
 19 32  1  0
 21 23  4  0
 22 27  4  0
 22 29  4  0
 23 31  4  0
 25 32  4  0
 26 31  4  0
 30 33  1  0
M  END
$$$$

 Created by Python create_sdf_string function

 34 39  0  0  0  0  0  0  0  0999 V2000
   11.7748   -2.4134   21.4869 O   0  0  0  0  0  0  0  0  0  0  0  0
    8.4571   -5.0280   15.5489 C   0  0  0  0  0  0  0  0  0  0  0  0
   10.6373   -4.1527   22.1338 O   0  0  0  0  0  0  0  0  0  0  0  0
    0.8865  -10.1736   16.8062 N   0  0  0  0  0  0  0  0  0  0  0  0
    0.6363  -11.5685   22.3514 C   0  0  0  0  0  0  0  0  0  0  0  0
    4.9382   -9.8865   18.4135 C   0  0  0  0  0  0  0  0  0  0  0  0
   10.8301   -3.1290   17.5832 C   0  0  0  0  0  0  0  0  0  0  0  0
    6.7438   -7.4973   17.7359 C   0  0  0  0  0  0  0  0  0  0  0  0
    8.5781   -5.9390   18.1797 N   0  0  0  0  0  0  0  0  0  0  0  0
    9.9427   -4.7068   19.6371 C   0  0  0  0  0  0  0  0  0  0  0  0
    0.4794  -11.4482   19.9323 C   0  0  0  0  0  0  0  0  0  0  0  0
    2.8970  -10.2853   17.8533 C   0  0  0  0  0  0  0  0  0  0  0  0
    9.9066   -4.1176   17.2835 C   0  0  0  0  0  0  0  0  0  0  0  0
    9.4685   -4.9581   18.3697 C   0  0  0  0  0  0  0  0  0  0  0  0
    6.5959   -6.5143   15.2606 C   0  0  0  0  0  0  0  0  0  0  0  0
    5.7287   -7.9676   16.9587 C   0  0  0  0  0  0  0  0  0  0  0  0
    7.6332   -6.5041   17.3535 C   0  0  0  0  0  0  0  0  0  0  0  0
    3.8550  -10.6808   18.6840 N   0  0  0  0  0  0  0  0  0  0  0  0
   11.0986   -3.3658   21.2207 C   0  0  0  0  0  0  0  0  0  0  0  0
    1.1160  -11.8135   21.0849 C   0  0  0  0  0  0  0  0  0  0  0  0
    4.7306   -8.9915   17.4326 C   0  0  0  0  0  0  0  0  0  0  0  0
   -1.3063  -10.5114   21.2530 C   0  0  0  0  0  0  0  0  0  0  0  0
    3.4124   -9.2810   17.0553 N   0  0  0  0  0  0  0  0  0  0  0  0
    9.4002   -4.2777   15.9890 C   0  0  0  0  0  0  0  0  0  0  0  0
   11.2565   -2.8190   18.8531 C   0  0  0  0  0  0  0  0  0  0  0  0
    1.3860   -9.2081   16.0076 C   0  0  0  0  0  0  0  0  0  0  0  0
   -0.6049  -10.8692   22.4441 C   0  0  0  0  0  0  0  0  0  0  0  0
    7.5780   -5.9951   16.0165 C   0  0  0  0  0  0  0  0  0  0  0  0
   -0.7359  -10.8450   20.0542 C   0  0  0  0  0  0  0  0  0  0  0  0
    1.0240  -11.7443   18.6054 C   0  0  0  0  0  0  0  0  0  0  0  0
    2.6597   -8.7525   16.1422 C   0  0  0  0  0  0  0  0  0  0  0  0
   10.7697   -3.6382   19.8893 C   0  0  0  0  0  0  0  0  0  0  0  0
    1.5848  -10.7455   17.7777 C   0  0  0  0  0  0  0  0  0  0  0  0
    5.6785   -7.4130   15.7047 C   0  0  0  0  0  0  0  0  0  0  0  0
  1 19  2  0
  2 24  4  0
  2 28  4  0
  3 19  1  0
  4 26  4  0
  4 33  4  0
  5 20  4  0
  5 27  4  0
  6 18  4  0
  6 21  4  0
  7 13  4  0
  7 25  4  0
  8 16  4  0
  8 17  4  0
  9 14  4  0
  9 17  4  0
 10 14  4  0
 10 32  4  0
 11 20  4  0
 11 29  4  0
 11 30  1  0
 12 18  4  0
 12 23  4  0
 12 33  4  0
 13 14  4  0
 13 24  4  0
 15 28  4  0
 15 34  4  0
 16 21  1  0
 16 34  4  0
 17 28  4  0
 19 32  1  0
 21 23  4  0
 22 27  4  0
 22 29  4  0
 23 31  4  0
 25 32  4  0
 26 31  4  0
 30 33  1  0
M  END
$$$$

 Created by Python create_sdf_string function

 34 39  0  0  0  0  0  0  0  0999 V2000
   11.7748   -2.4134   21.4869 O   0  0  0  0  0  0  0  0  0  0  0  0
    8.4571   -5.0280   15.5489 C   0  0  0  0  0  0  0  0  0  0  0  0
   10.6373   -4.1527   22.1338 O   0  0  0  0  0  0  0  0  0  0  0  0
    0.8865  -10.1736   16.8062 N   0  0  0  0  0  0  0  0  0  0  0  0
    0.6363  -11.5685   22.3514 C   0  0  0  0  0  0  0  0  0  0  0  0
    4.9382   -9.8865   18.4135 C   0  0  0  0  0  0  0  0  0  0  0  0
   10.8301   -3.1290   17.5832 C   0  0  0  0  0  0  0  0  0  0  0  0
    6.7438   -7.4973   17.7359 C   0  0  0  0  0  0  0  0  0  0  0  0
    8.5781   -5.9390   18.1797 N   0  0  0  0  0  0  0  0  0  0  0  0
    9.9427   -4.7068   19.6371 C   0  0  0  0  0  0  0  0  0  0  0  0
    0.4794  -11.4482   19.9323 C   0  0  0  0  0  0  0  0  0  0  0  0
    2.8970  -10.2853   17.8533 C   0  0  0  0  0  0  0  0  0  0  0  0
    9.9066   -4.1176   17.2835 C   0  0  0  0  0  0  0  0  0  0  0  0
    9.4685   -4.9581   18.3697 C   0  0  0  0  0  0  0  0  0  0  0  0
    6.5959   -6.5143   15.2606 C   0  0  0  0  0  0  0  0  0  0  0  0
    5.7287   -7.9676   16.9587 C   0  0  0  0  0  0  0  0  0  0  0  0
    7.6332   -6.5041   17.3535 C   0  0  0  0  0  0  0  0  0  0  0  0
    3.8550  -10.6808   18.6840 N   0  0  0  0  0  0  0  0  0  0  0  0
   11.0986   -3.3658   21.2207 C   0  0  0  0  0  0  0  0  0  0  0  0
    1.1160  -11.8135   21.0849 C   0  0  0  0  0  0  0  0  0  0  0  0
    4.7306   -8.9915   17.4326 C   0  0  0  0  0  0  0  0  0  0  0  0
   -1.3063  -10.5114   21.2530 C   0  0  0  0  0  0  0  0  0  0  0  0
    3.4124   -9.2810   17.0553 N   0  0  0  0  0  0  0  0  0  0  0  0
    9.4002   -4.2777   15.9890 C   0  0  0  0  0  0  0  0  0  0  0  0
   11.2565   -2.8190   18.8531 C   0  0  0  0  0  0  0  0  0  0  0  0
    1.3860   -9.2081   16.0076 C   0  0  0  0  0  0  0  0  0  0  0  0
   -0.6049  -10.8692   22.4441 C   0  0  0  0  0  0  0  0  0  0  0  0
    7.5780   -5.9951   16.0165 C   0  0  0  0  0  0  0  0  0  0  0  0
   -0.7359  -10.8450   20.0542 C   0  0  0  0  0  0  0  0  0  0  0  0
    1.0240  -11.7443   18.6054 C   0  0  0  0  0  0  0  0  0  0  0  0
    2.6597   -8.7525   16.1422 C   0  0  0  0  0  0  0  0  0  0  0  0
   10.7697   -3.6382   19.8893 C   0  0  0  0  0  0  0  0  0  0  0  0
    1.5848  -10.7455   17.7777 C   0  0  0  0  0  0  0  0  0  0  0  0
    5.6785   -7.4130   15.7047 C   0  0  0  0  0  0  0  0  0  0  0  0
  1 19  2  0
  2 24  4  0
  2 28  4  0
  3 19  1  0
  4 26  4  0
  4 33  4  0
  5 20  4  0
  5 27  4  0
  6 18  4  0
  6 21  4  0
  7 13  4  0
  7 25  4  0
  8 16  4  0
  8 17  4  0
  9 14  4  0
  9 17  4  0
 10 14  4  0
 10 32  4  0
 11 20  4  0
 11 29  4  0
 11 30  1  0
 12 18  4  0
 12 23  4  0
 12 33  4  0
 13 14  4  0
 13 24  4  0
 15 28  4  0
 15 34  4  0
 16 21  1  0
 16 34  4  0
 17 28  4  0
 19 32  1  0
 21 23  4  0
 22 27  4  0
 22 29  4  0
 23 31  4  0
 25 32  4  0
 26 31  4  0
 30 33  1  0
M  END
$$$$

 Created by Python create_sdf_string function

 34 39  0  0  0  0  0  0  0  0999 V2000
   11.7748   -2.4134   21.4869 O   0  0  0  0  0  0  0  0  0  0  0  0
    8.4571   -5.0280   15.5489 C   0  0  0  0  0  0  0  0  0  0  0  0
   10.6373   -4.1527   22.1338 O   0  0  0  0  0  0  0  0  0  0  0  0
    0.8865  -10.1736   16.8062 N   0  0  0  0  0  0  0  0  0  0  0  0
    0.6363  -11.5685   22.3514 C   0  0  0  0  0  0  0  0  0  0  0  0
    4.9382   -9.8865   18.4135 C   0  0  0  0  0  0  0  0  0  0  0  0
   10.8301   -3.1290   17.5832 C   0  0  0  0  0  0  0  0  0  0  0  0
    6.7438   -7.4973   17.7359 C   0  0  0  0  0  0  0  0  0  0  0  0
    8.5781   -5.9390   18.1797 N   0  0  0  0  0  0  0  0  0  0  0  0
    9.9427   -4.7068   19.6371 C   0  0  0  0  0  0  0  0  0  0  0  0
    0.4794  -11.4482   19.9323 C   0  0  0  0  0  0  0  0  0  0  0  0
    2.8970  -10.2853   17.8533 C   0  0  0  0  0  0  0  0  0  0  0  0
    9.9066   -4.1176   17.2835 C   0  0  0  0  0  0  0  0  0  0  0  0
    9.4685   -4.9581   18.3697 C   0  0  0  0  0  0  0  0  0  0  0  0
    6.5959   -6.5143   15.2606 C   0  0  0  0  0  0  0  0  0  0  0  0
    5.7287   -7.9676   16.9587 C   0  0  0  0  0  0  0  0  0  0  0  0
    7.6332   -6.5041   17.3535 C   0  0  0  0  0  0  0  0  0  0  0  0
    3.8550  -10.6808   18.6840 N   0  0  0  0  0  0  0  0  0  0  0  0
   11.0986   -3.3658   21.2207 C   0  0  0  0  0  0  0  0  0  0  0  0
    1.1160  -11.8135   21.0849 C   0  0  0  0  0  0  0  0  0  0  0  0
    4.7306   -8.9915   17.4326 C   0  0  0  0  0  0  0  0  0  0  0  0
   -1.3063  -10.5114   21.2530 C   0  0  0  0  0  0  0  0  0  0  0  0
    3.4124   -9.2810   17.0553 N   0  0  0  0  0  0  0  0  0  0  0  0
    9.4002   -4.2777   15.9890 C   0  0  0  0  0  0  0  0  0  0  0  0
   11.2565   -2.8190   18.8531 C   0  0  0  0  0  0  0  0  0  0  0  0
    1.3860   -9.2081   16.0076 C   0  0  0  0  0  0  0  0  0  0  0  0
   -0.6049  -10.8692   22.4441 C   0  0  0  0  0  0  0  0  0  0  0  0
    7.5780   -5.9951   16.0165 C   0  0  0  0  0  0  0  0  0  0  0  0
   -0.7359  -10.8450   20.0542 C   0  0  0  0  0  0  0  0  0  0  0  0
    1.0240  -11.7443   18.6054 C   0  0  0  0  0  0  0  0  0  0  0  0
    2.6597   -8.7525   16.1422 C   0  0  0  0  0  0  0  0  0  0  0  0
   10.7697   -3.6382   19.8893 C   0  0  0  0  0  0  0  0  0  0  0  0
    1.5848  -10.7455   17.7777 C   0  0  0  0  0  0  0  0  0  0  0  0
    5.6785   -7.4130   15.7047 C   0  0  0  0  0  0  0  0  0  0  0  0
  1 19  2  0
  2 24  4  0
  2 28  4  0
  3 19  1  0
  4 26  4  0
  4 33  4  0
  5 20  4  0
  5 27  4  0
  6 18  4  0
  6 21  4  0
  7 13  4  0
  7 25  4  0
  8 16  4  0
  8 17  4  0
  9 14  4  0
  9 17  4  0
 10 14  4  0
 10 32  4  0
 11 20  4  0
 11 29  4  0
 11 30  1  0
 12 18  4  0
 12 23  4  0
 12 33  4  0
 13 14  4  0
 13 24  4  0
 15 28  4  0
 15 34  4  0
 16 21  1  0
 16 34  4  0
 17 28  4  0
 19 32  1  0
 21 23  4  0
 22 27  4  0
 22 29  4  0
 23 31  4  0
 25 32  4  0
 26 31  4  0
 30 33  1  0
M  END
$$$$

 Created by Python create_sdf_string function

 34 39  0  0  0  0  0  0  0  0999 V2000
   11.7748   -2.4134   21.4869 O   0  0  0  0  0  0  0  0  0  0  0  0
    8.4571   -5.0280   15.5489 C   0  0  0  0  0  0  0  0  0  0  0  0
   10.6373   -4.1527   22.1338 O   0  0  0  0  0  0  0  0  0  0  0  0
    0.8865  -10.1736   16.8062 N   0  0  0  0  0  0  0  0  0  0  0  0
    0.6363  -11.5685   22.3514 C   0  0  0  0  0  0  0  0  0  0  0  0
    4.9382   -9.8865   18.4135 C   0  0  0  0  0  0  0  0  0  0  0  0
   10.8301   -3.1290   17.5832 C   0  0  0  0  0  0  0  0  0  0  0  0
    6.7438   -7.4973   17.7359 C   0  0  0  0  0  0  0  0  0  0  0  0
    8.5781   -5.9390   18.1797 N   0  0  0  0  0  0  0  0  0  0  0  0
    9.9427   -4.7068   19.6371 C   0  0  0  0  0  0  0  0  0  0  0  0
    0.4794  -11.4482   19.9323 C   0  0  0  0  0  0  0  0  0  0  0  0
    2.8970  -10.2853   17.8533 C   0  0  0  0  0  0  0  0  0  0  0  0
    9.9066   -4.1176   17.2835 C   0  0  0  0  0  0  0  0  0  0  0  0
    9.4685   -4.9581   18.3697 C   0  0  0  0  0  0  0  0  0  0  0  0
    6.5959   -6.5143   15.2606 C   0  0  0  0  0  0  0  0  0  0  0  0
    5.7287   -7.9676   16.9587 C   0  0  0  0  0  0  0  0  0  0  0  0
    7.6332   -6.5041   17.3535 C   0  0  0  0  0  0  0  0  0  0  0  0
    3.8550  -10.6808   18.6840 N   0  0  0  0  0  0  0  0  0  0  0  0
   11.0986   -3.3658   21.2207 C   0  0  0  0  0  0  0  0  0  0  0  0
    1.1160  -11.8135   21.0849 C   0  0  0  0  0  0  0  0  0  0  0  0
    4.7306   -8.9915   17.4326 C   0  0  0  0  0  0  0  0  0  0  0  0
   -1.3063  -10.5114   21.2530 C   0  0  0  0  0  0  0  0  0  0  0  0
    3.4124   -9.2810   17.0553 N   0  0  0  0  0  0  0  0  0  0  0  0
    9.4002   -4.2777   15.9890 C   0  0  0  0  0  0  0  0  0  0  0  0
   11.2565   -2.8190   18.8531 C   0  0  0  0  0  0  0  0  0  0  0  0
    1.3860   -9.2081   16.0076 C   0  0  0  0  0  0  0  0  0  0  0  0
   -0.6049  -10.8692   22.4441 C   0  0  0  0  0  0  0  0  0  0  0  0
    7.5780   -5.9951   16.0165 C   0  0  0  0  0  0  0  0  0  0  0  0
   -0.7359  -10.8450   20.0542 C   0  0  0  0  0  0  0  0  0  0  0  0
    1.0240  -11.7443   18.6054 C   0  0  0  0  0  0  0  0  0  0  0  0
    2.6597   -8.7525   16.1422 C   0  0  0  0  0  0  0  0  0  0  0  0
   10.7697   -3.6382   19.8893 C   0  0  0  0  0  0  0  0  0  0  0  0
    1.5848  -10.7455   17.7777 C   0  0  0  0  0  0  0  0  0  0  0  0
    5.6785   -7.4130   15.7047 C   0  0  0  0  0  0  0  0  0  0  0  0
  1 19  2  0
  2 24  4  0
  2 28  4  0
  3 19  1  0
  4 26  4  0
  4 33  4  0
  5 20  4  0
  5 27  4  0
  6 18  4  0
  6 21  4  0
  7 13  4  0
  7 25  4  0
  8 16  4  0
  8 17  4  0
  9 14  4  0
  9 17  4  0
 10 14  4  0
 10 32  4  0
 11 20  4  0
 11 29  4  0
 11 30  1  0
 12 18  4  0
 12 23  4  0
 12 33  4  0
 13 14  4  0
 13 24  4  0
 15 28  4  0
 15 34  4  0
 16 21  1  0
 16 34  4  0
 17 28  4  0
 19 32  1  0
 21 23  4  0
 22 27  4  0
 22 29  4  0
 23 31  4  0
 25 32  4  0
 26 31  4  0
 30 33  1  0
M  END
$$$$

 Created by Python create_sdf_string function

 34 39  0  0  0  0  0  0  0  0999 V2000
   11.7748   -2.4134   21.4869 O   0  0  0  0  0  0  0  0  0  0  0  0
    8.4571   -5.0280   15.5489 C   0  0  0  0  0  0  0  0  0  0  0  0
   10.6373   -4.1527   22.1338 O   0  0  0  0  0  0  0  0  0  0  0  0
    0.8865  -10.1736   16.8062 N   0  0  0  0  0  0  0  0  0  0  0  0
    0.6363  -11.5685   22.3514 C   0  0  0  0  0  0  0  0  0  0  0  0
    4.9382   -9.8865   18.4135 C   0  0  0  0  0  0  0  0  0  0  0  0
   10.8301   -3.1290   17.5832 C   0  0  0  0  0  0  0  0  0  0  0  0
    6.7438   -7.4973   17.7359 C   0  0  0  0  0  0  0  0  0  0  0  0
    8.5781   -5.9390   18.1797 N   0  0  0  0  0  0  0  0  0  0  0  0
    9.9427   -4.7068   19.6371 C   0  0  0  0  0  0  0  0  0  0  0  0
    0.4794  -11.4482   19.9323 C   0  0  0  0  0  0  0  0  0  0  0  0
    2.8970  -10.2853   17.8533 C   0  0  0  0  0  0  0  0  0  0  0  0
    9.9066   -4.1176   17.2835 C   0  0  0  0  0  0  0  0  0  0  0  0
    9.4685   -4.9581   18.3697 C   0  0  0  0  0  0  0  0  0  0  0  0
    6.5959   -6.5143   15.2606 C   0  0  0  0  0  0  0  0  0  0  0  0
    5.7287   -7.9676   16.9587 C   0  0  0  0  0  0  0  0  0  0  0  0
    7.6332   -6.5041   17.3535 C   0  0  0  0  0  0  0  0  0  0  0  0
    3.8550  -10.6808   18.6840 N   0  0  0  0  0  0  0  0  0  0  0  0
   11.0986   -3.3658   21.2207 C   0  0  0  0  0  0  0  0  0  0  0  0
    1.1160  -11.8135   21.0849 C   0  0  0  0  0  0  0  0  0  0  0  0
    4.7306   -8.9915   17.4326 C   0  0  0  0  0  0  0  0  0  0  0  0
   -1.3063  -10.5114   21.2530 C   0  0  0  0  0  0  0  0  0  0  0  0
    3.4124   -9.2810   17.0553 N   0  0  0  0  0  0  0  0  0  0  0  0
    9.4002   -4.2777   15.9890 C   0  0  0  0  0  0  0  0  0  0  0  0
   11.2565   -2.8190   18.8531 C   0  0  0  0  0  0  0  0  0  0  0  0
    1.3860   -9.2081   16.0076 C   0  0  0  0  0  0  0  0  0  0  0  0
   -0.6049  -10.8692   22.4441 C   0  0  0  0  0  0  0  0  0  0  0  0
    7.5780   -5.9951   16.0165 C   0  0  0  0  0  0  0  0  0  0  0  0
   -0.7359  -10.8450   20.0542 C   0  0  0  0  0  0  0  0  0  0  0  0
    1.0240  -11.7443   18.6054 C   0  0  0  0  0  0  0  0  0  0  0  0
    2.6597   -8.7525   16.1422 C   0  0  0  0  0  0  0  0  0  0  0  0
   10.7697   -3.6382   19.8893 C   0  0  0  0  0  0  0  0  0  0  0  0
    1.5848  -10.7455   17.7777 C   0  0  0  0  0  0  0  0  0  0  0  0
    5.6785   -7.4130   15.7047 C   0  0  0  0  0  0  0  0  0  0  0  0
  1 19  2  0
  2 24  4  0
  2 28  4  0
  3 19  1  0
  4 26  4  0
  4 33  4  0
  5 20  4  0
  5 27  4  0
  6 18  4  0
  6 21  4  0
  7 13  4  0
  7 25  4  0
  8 16  4  0
  8 17  4  0
  9 14  4  0
  9 17  4  0
 10 14  4  0
 10 32  4  0
 11 20  4  0
 11 29  4  0
 11 30  1  0
 12 18  4  0
 12 23  4  0
 12 33  4  0
 13 14  4  0
 13 24  4  0
 15 28  4  0
 15 34  4  0
 16 21  1  0
 16 34  4  0
 17 28  4  0
 19 32  1  0
 21 23  4  0
 22 27  4  0
 22 29  4  0
 23 31  4  0
 25 32  4  0
 26 31  4  0
 30 33  1  0
M  END
$$$$

 Created by Python create_sdf_string function

 34 39  0  0  0  0  0  0  0  0999 V2000
   11.7748   -2.4134   21.4869 O   0  0  0  0  0  0  0  0  0  0  0  0
    8.4571   -5.0280   15.5489 C   0  0  0  0  0  0  0  0  0  0  0  0
   10.6373   -4.1527   22.1338 O   0  0  0  0  0  0  0  0  0  0  0  0
    0.8865  -10.1736   16.8062 N   0  0  0  0  0  0  0  0  0  0  0  0
    0.6363  -11.5685   22.3514 C   0  0  0  0  0  0  0  0  0  0  0  0
    4.9382   -9.8865   18.4135 C   0  0  0  0  0  0  0  0  0  0  0  0
   10.8301   -3.1290   17.5832 C   0  0  0  0  0  0  0  0  0  0  0  0
    6.7438   -7.4973   17.7359 C   0  0  0  0  0  0  0  0  0  0  0  0
    8.5781   -5.9390   18.1797 N   0  0  0  0  0  0  0  0  0  0  0  0
    9.9427   -4.7068   19.6371 C   0  0  0  0  0  0  0  0  0  0  0  0
    0.4794  -11.4482   19.9323 C   0  0  0  0  0  0  0  0  0  0  0  0
    2.8970  -10.2853   17.8533 C   0  0  0  0  0  0  0  0  0  0  0  0
    9.9066   -4.1176   17.2835 C   0  0  0  0  0  0  0  0  0  0  0  0
    9.4685   -4.9581   18.3697 C   0  0  0  0  0  0  0  0  0  0  0  0
    6.5959   -6.5143   15.2606 C   0  0  0  0  0  0  0  0  0  0  0  0
    5.7287   -7.9676   16.9587 C   0  0  0  0  0  0  0  0  0  0  0  0
    7.6332   -6.5041   17.3535 C   0  0  0  0  0  0  0  0  0  0  0  0
    3.8550  -10.6808   18.6840 N   0  0  0  0  0  0  0  0  0  0  0  0
   11.0986   -3.3658   21.2207 C   0  0  0  0  0  0  0  0  0  0  0  0
    1.1160  -11.8135   21.0849 C   0  0  0  0  0  0  0  0  0  0  0  0
    4.7306   -8.9915   17.4326 C   0  0  0  0  0  0  0  0  0  0  0  0
   -1.3063  -10.5114   21.2530 C   0  0  0  0  0  0  0  0  0  0  0  0
    3.4124   -9.2810   17.0553 N   0  0  0  0  0  0  0  0  0  0  0  0
    9.4002   -4.2777   15.9890 C   0  0  0  0  0  0  0  0  0  0  0  0
   11.2565   -2.8190   18.8531 C   0  0  0  0  0  0  0  0  0  0  0  0
    1.3860   -9.2081   16.0076 C   0  0  0  0  0  0  0  0  0  0  0  0
   -0.6049  -10.8692   22.4441 C   0  0  0  0  0  0  0  0  0  0  0  0
    7.5780   -5.9951   16.0165 C   0  0  0  0  0  0  0  0  0  0  0  0
   -0.7359  -10.8450   20.0542 C   0  0  0  0  0  0  0  0  0  0  0  0
    1.0240  -11.7443   18.6054 C   0  0  0  0  0  0  0  0  0  0  0  0
    2.6597   -8.7525   16.1422 C   0  0  0  0  0  0  0  0  0  0  0  0
   10.7697   -3.6382   19.8893 C   0  0  0  0  0  0  0  0  0  0  0  0
    1.5848  -10.7455   17.7777 C   0  0  0  0  0  0  0  0  0  0  0  0
    5.6785   -7.4130   15.7047 C   0  0  0  0  0  0  0  0  0  0  0  0
  1 19  2  0
  2 24  4  0
  2 28  4  0
  3 19  1  0
  4 26  4  0
  4 33  4  0
  5 20  4  0
  5 27  4  0
  6 18  4  0
  6 21  4  0
  7 13  4  0
  7 25  4  0
  8 16  4  0
  8 17  4  0
  9 14  4  0
  9 17  4  0
 10 14  4  0
 10 32  4  0
 11 20  4  0
 11 29  4  0
 11 30  1  0
 12 18  4  0
 12 23  4  0
 12 33  4  0
 13 14  4  0
 13 24  4  0
 15 28  4  0
 15 34  4  0
 16 21  1  0
 16 34  4  0
 17 28  4  0
 19 32  1  0
 21 23  4  0
 22 27  4  0
 22 29  4  0
 23 31  4  0
 25 32  4  0
 26 31  4  0
 30 33  1  0
M  END
$$$$

 Created by Python create_sdf_string function

 34 39  0  0  0  0  0  0  0  0999 V2000
   11.7748   -2.4134   21.4869 O   0  0  0  0  0  0  0  0  0  0  0  0
    8.4571   -5.0280   15.5489 C   0  0  0  0  0  0  0  0  0  0  0  0
   10.6373   -4.1527   22.1338 O   0  0  0  0  0  0  0  0  0  0  0  0
    0.8865  -10.1736   16.8062 N   0  0  0  0  0  0  0  0  0  0  0  0
    0.6363  -11.5685   22.3514 C   0  0  0  0  0  0  0  0  0  0  0  0
    4.9382   -9.8865   18.4135 C   0  0  0  0  0  0  0  0  0  0  0  0
   10.8301   -3.1290   17.5832 C   0  0  0  0  0  0  0  0  0  0  0  0
    6.7438   -7.4973   17.7359 C   0  0  0  0  0  0  0  0  0  0  0  0
    8.5781   -5.9390   18.1797 N   0  0  0  0  0  0  0  0  0  0  0  0
    9.9427   -4.7068   19.6371 C   0  0  0  0  0  0  0  0  0  0  0  0
    0.4794  -11.4482   19.9323 C   0  0  0  0  0  0  0  0  0  0  0  0
    2.8970  -10.2853   17.8533 C   0  0  0  0  0  0  0  0  0  0  0  0
    9.9066   -4.1176   17.2835 C   0  0  0  0  0  0  0  0  0  0  0  0
    9.4685   -4.9581   18.3697 C   0  0  0  0  0  0  0  0  0  0  0  0
    6.5959   -6.5143   15.2606 C   0  0  0  0  0  0  0  0  0  0  0  0
    5.7287   -7.9676   16.9587 C   0  0  0  0  0  0  0  0  0  0  0  0
    7.6332   -6.5041   17.3535 C   0  0  0  0  0  0  0  0  0  0  0  0
    3.8550  -10.6808   18.6840 N   0  0  0  0  0  0  0  0  0  0  0  0
   11.0986   -3.3658   21.2207 C   0  0  0  0  0  0  0  0  0  0  0  0
    1.1160  -11.8135   21.0849 C   0  0  0  0  0  0  0  0  0  0  0  0
    4.7306   -8.9915   17.4326 C   0  0  0  0  0  0  0  0  0  0  0  0
   -1.3063  -10.5114   21.2530 C   0  0  0  0  0  0  0  0  0  0  0  0
    3.4124   -9.2810   17.0553 N   0  0  0  0  0  0  0  0  0  0  0  0
    9.4002   -4.2777   15.9890 C   0  0  0  0  0  0  0  0  0  0  0  0
   11.2565   -2.8190   18.8531 C   0  0  0  0  0  0  0  0  0  0  0  0
    1.3860   -9.2081   16.0076 C   0  0  0  0  0  0  0  0  0  0  0  0
   -0.6049  -10.8692   22.4441 C   0  0  0  0  0  0  0  0  0  0  0  0
    7.5780   -5.9951   16.0165 C   0  0  0  0  0  0  0  0  0  0  0  0
   -0.7359  -10.8450   20.0542 C   0  0  0  0  0  0  0  0  0  0  0  0
    1.0240  -11.7443   18.6054 C   0  0  0  0  0  0  0  0  0  0  0  0
    2.6597   -8.7525   16.1422 C   0  0  0  0  0  0  0  0  0  0  0  0
   10.7697   -3.6382   19.8893 C   0  0  0  0  0  0  0  0  0  0  0  0
    1.5848  -10.7455   17.7777 C   0  0  0  0  0  0  0  0  0  0  0  0
    5.6785   -7.4130   15.7047 C   0  0  0  0  0  0  0  0  0  0  0  0
  1 19  2  0
  2 24  4  0
  2 28  4  0
  3 19  1  0
  4 26  4  0
  4 33  4  0
  5 20  4  0
  5 27  4  0
  6 18  4  0
  6 21  4  0
  7 13  4  0
  7 25  4  0
  8 16  4  0
  8 17  4  0
  9 14  4  0
  9 17  4  0
 10 14  4  0
 10 32  4  0
 11 20  4  0
 11 29  4  0
 11 30  1  0
 12 18  4  0
 12 23  4  0
 12 33  4  0
 13 14  4  0
 13 24  4  0
 15 28  4  0
 15 34  4  0
 16 21  1  0
 16 34  4  0
 17 28  4  0
 19 32  1  0
 21 23  4  0
 22 27  4  0
 22 29  4  0
 23 31  4  0
 25 32  4  0
 26 31  4  0
 30 33  1  0
M  END
$$$$

 Created by Python create_sdf_string function

 34 39  0  0  0  0  0  0  0  0999 V2000
   11.7748   -2.4134   21.4869 O   0  0  0  0  0  0  0  0  0  0  0  0
    8.4571   -5.0280   15.5489 C   0  0  0  0  0  0  0  0  0  0  0  0
   10.6373   -4.1527   22.1338 O   0  0  0  0  0  0  0  0  0  0  0  0
    0.8865  -10.1736   16.8062 N   0  0  0  0  0  0  0  0  0  0  0  0
    0.6363  -11.5685   22.3514 C   0  0  0  0  0  0  0  0  0  0  0  0
    4.9382   -9.8865   18.4135 C   0  0  0  0  0  0  0  0  0  0  0  0
   10.8301   -3.1290   17.5832 C   0  0  0  0  0  0  0  0  0  0  0  0
    6.7438   -7.4973   17.7359 C   0  0  0  0  0  0  0  0  0  0  0  0
    8.5781   -5.9390   18.1797 N   0  0  0  0  0  0  0  0  0  0  0  0
    9.9427   -4.7068   19.6371 C   0  0  0  0  0  0  0  0  0  0  0  0
    0.4794  -11.4482   19.9323 C   0  0  0  0  0  0  0  0  0  0  0  0
    2.8970  -10.2853   17.8533 C   0  0  0  0  0  0  0  0  0  0  0  0
    9.9066   -4.1176   17.2835 C   0  0  0  0  0  0  0  0  0  0  0  0
    9.4685   -4.9581   18.3697 C   0  0  0  0  0  0  0  0  0  0  0  0
    6.5959   -6.5143   15.2606 C   0  0  0  0  0  0  0  0  0  0  0  0
    5.7287   -7.9676   16.9587 C   0  0  0  0  0  0  0  0  0  0  0  0
    7.6332   -6.5041   17.3535 C   0  0  0  0  0  0  0  0  0  0  0  0
    3.8550  -10.6808   18.6840 N   0  0  0  0  0  0  0  0  0  0  0  0
   11.0986   -3.3658   21.2207 C   0  0  0  0  0  0  0  0  0  0  0  0
    1.1160  -11.8135   21.0849 C   0  0  0  0  0  0  0  0  0  0  0  0
    4.7306   -8.9915   17.4326 C   0  0  0  0  0  0  0  0  0  0  0  0
   -1.3063  -10.5114   21.2530 C   0  0  0  0  0  0  0  0  0  0  0  0
    3.4124   -9.2810   17.0553 N   0  0  0  0  0  0  0  0  0  0  0  0
    9.4002   -4.2777   15.9890 C   0  0  0  0  0  0  0  0  0  0  0  0
   11.2565   -2.8190   18.8531 C   0  0  0  0  0  0  0  0  0  0  0  0
    1.3860   -9.2081   16.0076 C   0  0  0  0  0  0  0  0  0  0  0  0
   -0.6049  -10.8692   22.4441 C   0  0  0  0  0  0  0  0  0  0  0  0
    7.5780   -5.9951   16.0165 C   0  0  0  0  0  0  0  0  0  0  0  0
   -0.7359  -10.8450   20.0542 C   0  0  0  0  0  0  0  0  0  0  0  0
    1.0240  -11.7443   18.6054 C   0  0  0  0  0  0  0  0  0  0  0  0
    2.6597   -8.7525   16.1422 C   0  0  0  0  0  0  0  0  0  0  0  0
   10.7697   -3.6382   19.8893 C   0  0  0  0  0  0  0  0  0  0  0  0
    1.5848  -10.7455   17.7777 C   0  0  0  0  0  0  0  0  0  0  0  0
    5.6785   -7.4130   15.7047 C   0  0  0  0  0  0  0  0  0  0  0  0
  1 19  2  0
  2 24  4  0
  2 28  4  0
  3 19  1  0
  4 26  4  0
  4 33  4  0
  5 20  4  0
  5 27  4  0
  6 18  4  0
  6 21  4  0
  7 13  4  0
  7 25  4  0
  8 16  4  0
  8 17  4  0
  9 14  4  0
  9 17  4  0
 10 14  4  0
 10 32  4  0
 11 20  4  0
 11 29  4  0
 11 30  1  0
 12 18  4  0
 12 23  4  0
 12 33  4  0
 13 14  4  0
 13 24  4  0
 15 28  4  0
 15 34  4  0
 16 21  1  0
 16 34  4  0
 17 28  4  0
 19 32  1  0
 21 23  4  0
 22 27  4  0
 22 29  4  0
 23 31  4  0
 25 32  4  0
 26 31  4  0
 30 33  1  0
M  END
$$$$

 Created by Python create_sdf_string function

 34 39  0  0  0  0  0  0  0  0999 V2000
   11.7748   -2.4134   21.4869 O   0  0  0  0  0  0  0  0  0  0  0  0
    8.4571   -5.0280   15.5489 C   0  0  0  0  0  0  0  0  0  0  0  0
   10.6373   -4.1527   22.1338 O   0  0  0  0  0  0  0  0  0  0  0  0
    0.8865  -10.1736   16.8062 N   0  0  0  0  0  0  0  0  0  0  0  0
    0.6363  -11.5685   22.3514 C   0  0  0  0  0  0  0  0  0  0  0  0
    4.9382   -9.8865   18.4135 C   0  0  0  0  0  0  0  0  0  0  0  0
   10.8301   -3.1290   17.5832 C   0  0  0  0  0  0  0  0  0  0  0  0
    6.7438   -7.4973   17.7359 C   0  0  0  0  0  0  0  0  0  0  0  0
    8.5781   -5.9390   18.1797 N   0  0  0  0  0  0  0  0  0  0  0  0
    9.9427   -4.7068   19.6371 C   0  0  0  0  0  0  0  0  0  0  0  0
    0.4794  -11.4482   19.9323 C   0  0  0  0  0  0  0  0  0  0  0  0
    2.8970  -10.2853   17.8533 C   0  0  0  0  0  0  0  0  0  0  0  0
    9.9066   -4.1176   17.2835 C   0  0  0  0  0  0  0  0  0  0  0  0
    9.4685   -4.9581   18.3697 C   0  0  0  0  0  0  0  0  0  0  0  0
    6.5959   -6.5143   15.2606 C   0  0  0  0  0  0  0  0  0  0  0  0
    5.7287   -7.9676   16.9587 C   0  0  0  0  0  0  0  0  0  0  0  0
    7.6332   -6.5041   17.3535 C   0  0  0  0  0  0  0  0  0  0  0  0
    3.8550  -10.6808   18.6840 N   0  0  0  0  0  0  0  0  0  0  0  0
   11.0986   -3.3658   21.2207 C   0  0  0  0  0  0  0  0  0  0  0  0
    1.1160  -11.8135   21.0849 C   0  0  0  0  0  0  0  0  0  0  0  0
    4.7306   -8.9915   17.4326 C   0  0  0  0  0  0  0  0  0  0  0  0
   -1.3063  -10.5114   21.2530 C   0  0  0  0  0  0  0  0  0  0  0  0
    3.4124   -9.2810   17.0553 N   0  0  0  0  0  0  0  0  0  0  0  0
    9.4002   -4.2777   15.9890 C   0  0  0  0  0  0  0  0  0  0  0  0
   11.2565   -2.8190   18.8531 C   0  0  0  0  0  0  0  0  0  0  0  0
    1.3860   -9.2081   16.0076 C   0  0  0  0  0  0  0  0  0  0  0  0
   -0.6049  -10.8692   22.4441 C   0  0  0  0  0  0  0  0  0  0  0  0
    7.5780   -5.9951   16.0165 C   0  0  0  0  0  0  0  0  0  0  0  0
   -0.7359  -10.8450   20.0542 C   0  0  0  0  0  0  0  0  0  0  0  0
    1.0240  -11.7443   18.6054 C   0  0  0  0  0  0  0  0  0  0  0  0
    2.6597   -8.7525   16.1422 C   0  0  0  0  0  0  0  0  0  0  0  0
   10.7697   -3.6382   19.8893 C   0  0  0  0  0  0  0  0  0  0  0  0
    1.5848  -10.7455   17.7777 C   0  0  0  0  0  0  0  0  0  0  0  0
    5.6785   -7.4130   15.7047 C   0  0  0  0  0  0  0  0  0  0  0  0
  1 19  2  0
  2 24  4  0
  2 28  4  0
  3 19  1  0
  4 26  4  0
  4 33  4  0
  5 20  4  0
  5 27  4  0
  6 18  4  0
  6 21  4  0
  7 13  4  0
  7 25  4  0
  8 16  4  0
  8 17  4  0
  9 14  4  0
  9 17  4  0
 10 14  4  0
 10 32  4  0
 11 20  4  0
 11 29  4  0
 11 30  1  0
 12 18  4  0
 12 23  4  0
 12 33  4  0
 13 14  4  0
 13 24  4  0
 15 28  4  0
 15 34  4  0
 16 21  1  0
 16 34  4  0
 17 28  4  0
 19 32  1  0
 21 23  4  0
 22 27  4  0
 22 29  4  0
 23 31  4  0
 25 32  4  0
 26 31  4  0
 30 33  1  0
M  END
$$$$

 Created by Python create_sdf_string function

 34 39  0  0  0  0  0  0  0  0999 V2000
   11.7748   -2.4134   21.4869 O   0  0  0  0  0  0  0  0  0  0  0  0
    8.4571   -5.0280   15.5489 C   0  0  0  0  0  0  0  0  0  0  0  0
   10.6373   -4.1527   22.1338 O   0  0  0  0  0  0  0  0  0  0  0  0
    0.8865  -10.1736   16.8062 N   0  0  0  0  0  0  0  0  0  0  0  0
    0.6363  -11.5685   22.3514 C   0  0  0  0  0  0  0  0  0  0  0  0
    4.9382   -9.8865   18.4135 C   0  0  0  0  0  0  0  0  0  0  0  0
   10.8301   -3.1290   17.5832 C   0  0  0  0  0  0  0  0  0  0  0  0
    6.7438   -7.4973   17.7359 C   0  0  0  0  0  0  0  0  0  0  0  0
    8.5781   -5.9390   18.1797 N   0  0  0  0  0  0  0  0  0  0  0  0
    9.9427   -4.7068   19.6371 C   0  0  0  0  0  0  0  0  0  0  0  0
    0.4794  -11.4482   19.9323 C   0  0  0  0  0  0  0  0  0  0  0  0
    2.8970  -10.2853   17.8533 C   0  0  0  0  0  0  0  0  0  0  0  0
    9.9066   -4.1176   17.2835 C   0  0  0  0  0  0  0  0  0  0  0  0
    9.4685   -4.9581   18.3697 C   0  0  0  0  0  0  0  0  0  0  0  0
    6.5959   -6.5143   15.2606 C   0  0  0  0  0  0  0  0  0  0  0  0
    5.7287   -7.9676   16.9587 C   0  0  0  0  0  0  0  0  0  0  0  0
    7.6332   -6.5041   17.3535 C   0  0  0  0  0  0  0  0  0  0  0  0
    3.8550  -10.6808   18.6840 N   0  0  0  0  0  0  0  0  0  0  0  0
   11.0986   -3.3658   21.2207 C   0  0  0  0  0  0  0  0  0  0  0  0
    1.1160  -11.8135   21.0849 C   0  0  0  0  0  0  0  0  0  0  0  0
    4.7306   -8.9915   17.4326 C   0  0  0  0  0  0  0  0  0  0  0  0
   -1.3063  -10.5114   21.2530 C   0  0  0  0  0  0  0  0  0  0  0  0
    3.4124   -9.2810   17.0553 N   0  0  0  0  0  0  0  0  0  0  0  0
    9.4002   -4.2777   15.9890 C   0  0  0  0  0  0  0  0  0  0  0  0
   11.2565   -2.8190   18.8531 C   0  0  0  0  0  0  0  0  0  0  0  0
    1.3860   -9.2081   16.0076 C   0  0  0  0  0  0  0  0  0  0  0  0
   -0.6049  -10.8692   22.4441 C   0  0  0  0  0  0  0  0  0  0  0  0
    7.5780   -5.9951   16.0165 C   0  0  0  0  0  0  0  0  0  0  0  0
   -0.7359  -10.8450   20.0542 C   0  0  0  0  0  0  0  0  0  0  0  0
    1.0240  -11.7443   18.6054 C   0  0  0  0  0  0  0  0  0  0  0  0
    2.6597   -8.7525   16.1422 C   0  0  0  0  0  0  0  0  0  0  0  0
   10.7697   -3.6382   19.8893 C   0  0  0  0  0  0  0  0  0  0  0  0
    1.5848  -10.7455   17.7777 C   0  0  0  0  0  0  0  0  0  0  0  0
    5.6785   -7.4130   15.7047 C   0  0  0  0  0  0  0  0  0  0  0  0
  1 19  2  0
  2 24  4  0
  2 28  4  0
  3 19  1  0
  4 26  4  0
  4 33  4  0
  5 20  4  0
  5 27  4  0
  6 18  4  0
  6 21  4  0
  7 13  4  0
  7 25  4  0
  8 16  4  0
  8 17  4  0
  9 14  4  0
  9 17  4  0
 10 14  4  0
 10 32  4  0
 11 20  4  0
 11 29  4  0
 11 30  1  0
 12 18  4  0
 12 23  4  0
 12 33  4  0
 13 14  4  0
 13 24  4  0
 15 28  4  0
 15 34  4  0
 16 21  1  0
 16 34  4  0
 17 28  4  0
 19 32  1  0
 21 23  4  0
 22 27  4  0
 22 29  4  0
 23 31  4  0
 25 32  4  0
 26 31  4  0
 30 33  1  0
M  END
$$$$

 Created by Python create_sdf_string function

 34 39  0  0  0  0  0  0  0  0999 V2000
   11.7748   -2.4134   21.4869 O   0  0  0  0  0  0  0  0  0  0  0  0
    8.4571   -5.0280   15.5489 C   0  0  0  0  0  0  0  0  0  0  0  0
   10.6373   -4.1527   22.1338 O   0  0  0  0  0  0  0  0  0  0  0  0
    0.8865  -10.1736   16.8062 N   0  0  0  0  0  0  0  0  0  0  0  0
    0.6363  -11.5685   22.3514 C   0  0  0  0  0  0  0  0  0  0  0  0
    4.9382   -9.8865   18.4135 C   0  0  0  0  0  0  0  0  0  0  0  0
   10.8301   -3.1290   17.5832 C   0  0  0  0  0  0  0  0  0  0  0  0
    6.7438   -7.4973   17.7359 C   0  0  0  0  0  0  0  0  0  0  0  0
    8.5781   -5.9390   18.1797 N   0  0  0  0  0  0  0  0  0  0  0  0
    9.9427   -4.7068   19.6371 C   0  0  0  0  0  0  0  0  0  0  0  0
    0.4794  -11.4482   19.9323 C   0  0  0  0  0  0  0  0  0  0  0  0
    2.8970  -10.2853   17.8533 C   0  0  0  0  0  0  0  0  0  0  0  0
    9.9066   -4.1176   17.2835 C   0  0  0  0  0  0  0  0  0  0  0  0
    9.4685   -4.9581   18.3697 C   0  0  0  0  0  0  0  0  0  0  0  0
    6.5959   -6.5143   15.2606 C   0  0  0  0  0  0  0  0  0  0  0  0
    5.7287   -7.9676   16.9587 C   0  0  0  0  0  0  0  0  0  0  0  0
    7.6332   -6.5041   17.3535 C   0  0  0  0  0  0  0  0  0  0  0  0
    3.8550  -10.6808   18.6840 N   0  0  0  0  0  0  0  0  0  0  0  0
   11.0986   -3.3658   21.2207 C   0  0  0  0  0  0  0  0  0  0  0  0
    1.1160  -11.8135   21.0849 C   0  0  0  0  0  0  0  0  0  0  0  0
    4.7306   -8.9915   17.4326 C   0  0  0  0  0  0  0  0  0  0  0  0
   -1.3063  -10.5114   21.2530 C   0  0  0  0  0  0  0  0  0  0  0  0
    3.4124   -9.2810   17.0553 N   0  0  0  0  0  0  0  0  0  0  0  0
    9.4002   -4.2777   15.9890 C   0  0  0  0  0  0  0  0  0  0  0  0
   11.2565   -2.8190   18.8531 C   0  0  0  0  0  0  0  0  0  0  0  0
    1.3860   -9.2081   16.0076 C   0  0  0  0  0  0  0  0  0  0  0  0
   -0.6049  -10.8692   22.4441 C   0  0  0  0  0  0  0  0  0  0  0  0
    7.5780   -5.9951   16.0165 C   0  0  0  0  0  0  0  0  0  0  0  0
   -0.7359  -10.8450   20.0542 C   0  0  0  0  0  0  0  0  0  0  0  0
    1.0240  -11.7443   18.6054 C   0  0  0  0  0  0  0  0  0  0  0  0
    2.6597   -8.7525   16.1422 C   0  0  0  0  0  0  0  0  0  0  0  0
   10.7697   -3.6382   19.8893 C   0  0  0  0  0  0  0  0  0  0  0  0
    1.5848  -10.7455   17.7777 C   0  0  0  0  0  0  0  0  0  0  0  0
    5.6785   -7.4130   15.7047 C   0  0  0  0  0  0  0  0  0  0  0  0
  1 19  2  0
  2 24  4  0
  2 28  4  0
  3 19  1  0
  4 26  4  0
  4 33  4  0
  5 20  4  0
  5 27  4  0
  6 18  4  0
  6 21  4  0
  7 13  4  0
  7 25  4  0
  8 16  4  0
  8 17  4  0
  9 14  4  0
  9 17  4  0
 10 14  4  0
 10 32  4  0
 11 20  4  0
 11 29  4  0
 11 30  1  0
 12 18  4  0
 12 23  4  0
 12 33  4  0
 13 14  4  0
 13 24  4  0
 15 28  4  0
 15 34  4  0
 16 21  1  0
 16 34  4  0
 17 28  4  0
 19 32  1  0
 21 23  4  0
 22 27  4  0
 22 29  4  0
 23 31  4  0
 25 32  4  0
 26 31  4  0
 30 33  1  0
M  END
$$$$

 Created by Python create_sdf_string function

 34 39  0  0  0  0  0  0  0  0999 V2000
   11.7748   -2.4134   21.4869 O   0  0  0  0  0  0  0  0  0  0  0  0
    8.4571   -5.0280   15.5489 C   0  0  0  0  0  0  0  0  0  0  0  0
   10.6373   -4.1527   22.1338 O   0  0  0  0  0  0  0  0  0  0  0  0
    0.8865  -10.1736   16.8062 N   0  0  0  0  0  0  0  0  0  0  0  0
    0.6363  -11.5685   22.3514 C   0  0  0  0  0  0  0  0  0  0  0  0
    4.9382   -9.8865   18.4135 C   0  0  0  0  0  0  0  0  0  0  0  0
   10.8301   -3.1290   17.5832 C   0  0  0  0  0  0  0  0  0  0  0  0
    6.7438   -7.4973   17.7359 C   0  0  0  0  0  0  0  0  0  0  0  0
    8.5781   -5.9390   18.1797 N   0  0  0  0  0  0  0  0  0  0  0  0
    9.9427   -4.7068   19.6371 C   0  0  0  0  0  0  0  0  0  0  0  0
    0.4794  -11.4482   19.9323 C   0  0  0  0  0  0  0  0  0  0  0  0
    2.8970  -10.2853   17.8533 C   0  0  0  0  0  0  0  0  0  0  0  0
    9.9066   -4.1176   17.2835 C   0  0  0  0  0  0  0  0  0  0  0  0
    9.4685   -4.9581   18.3697 C   0  0  0  0  0  0  0  0  0  0  0  0
    6.5959   -6.5143   15.2606 C   0  0  0  0  0  0  0  0  0  0  0  0
    5.7287   -7.9676   16.9587 C   0  0  0  0  0  0  0  0  0  0  0  0
    7.6332   -6.5041   17.3535 C   0  0  0  0  0  0  0  0  0  0  0  0
    3.8550  -10.6808   18.6840 N   0  0  0  0  0  0  0  0  0  0  0  0
   11.0986   -3.3658   21.2207 C   0  0  0  0  0  0  0  0  0  0  0  0
    1.1160  -11.8135   21.0849 C   0  0  0  0  0  0  0  0  0  0  0  0
    4.7306   -8.9915   17.4326 C   0  0  0  0  0  0  0  0  0  0  0  0
   -1.3063  -10.5114   21.2530 C   0  0  0  0  0  0  0  0  0  0  0  0
    3.4124   -9.2810   17.0553 N   0  0  0  0  0  0  0  0  0  0  0  0
    9.4002   -4.2777   15.9890 C   0  0  0  0  0  0  0  0  0  0  0  0
   11.2565   -2.8190   18.8531 C   0  0  0  0  0  0  0  0  0  0  0  0
    1.3860   -9.2081   16.0076 C   0  0  0  0  0  0  0  0  0  0  0  0
   -0.6049  -10.8692   22.4441 C   0  0  0  0  0  0  0  0  0  0  0  0
    7.5780   -5.9951   16.0165 C   0  0  0  0  0  0  0  0  0  0  0  0
   -0.7359  -10.8450   20.0542 C   0  0  0  0  0  0  0  0  0  0  0  0
    1.0240  -11.7443   18.6054 C   0  0  0  0  0  0  0  0  0  0  0  0
    2.6597   -8.7525   16.1422 C   0  0  0  0  0  0  0  0  0  0  0  0
   10.7697   -3.6382   19.8893 C   0  0  0  0  0  0  0  0  0  0  0  0
    1.5848  -10.7455   17.7777 C   0  0  0  0  0  0  0  0  0  0  0  0
    5.6785   -7.4130   15.7047 C   0  0  0  0  0  0  0  0  0  0  0  0
  1 19  2  0
  2 24  4  0
  2 28  4  0
  3 19  1  0
  4 26  4  0
  4 33  4  0
  5 20  4  0
  5 27  4  0
  6 18  4  0
  6 21  4  0
  7 13  4  0
  7 25  4  0
  8 16  4  0
  8 17  4  0
  9 14  4  0
  9 17  4  0
 10 14  4  0
 10 32  4  0
 11 20  4  0
 11 29  4  0
 11 30  1  0
 12 18  4  0
 12 23  4  0
 12 33  4  0
 13 14  4  0
 13 24  4  0
 15 28  4  0
 15 34  4  0
 16 21  1  0
 16 34  4  0
 17 28  4  0
 19 32  1  0
 21 23  4  0
 22 27  4  0
 22 29  4  0
 23 31  4  0
 25 32  4  0
 26 31  4  0
 30 33  1  0
M  END
$$$$

 Created by Python create_sdf_string function

 34 39  0  0  0  0  0  0  0  0999 V2000
   11.7748   -2.4134   21.4869 O   0  0  0  0  0  0  0  0  0  0  0  0
    8.4571   -5.0280   15.5489 C   0  0  0  0  0  0  0  0  0  0  0  0
   10.6373   -4.1527   22.1338 O   0  0  0  0  0  0  0  0  0  0  0  0
    0.8865  -10.1736   16.8062 N   0  0  0  0  0  0  0  0  0  0  0  0
    0.6363  -11.5685   22.3514 C   0  0  0  0  0  0  0  0  0  0  0  0
    4.9382   -9.8865   18.4135 C   0  0  0  0  0  0  0  0  0  0  0  0
   10.8301   -3.1290   17.5832 C   0  0  0  0  0  0  0  0  0  0  0  0
    6.7438   -7.4973   17.7359 C   0  0  0  0  0  0  0  0  0  0  0  0
    8.5781   -5.9390   18.1797 N   0  0  0  0  0  0  0  0  0  0  0  0
    9.9427   -4.7068   19.6371 C   0  0  0  0  0  0  0  0  0  0  0  0
    0.4794  -11.4482   19.9323 C   0  0  0  0  0  0  0  0  0  0  0  0
    2.8970  -10.2853   17.8533 C   0  0  0  0  0  0  0  0  0  0  0  0
    9.9066   -4.1176   17.2835 C   0  0  0  0  0  0  0  0  0  0  0  0
    9.4685   -4.9581   18.3697 C   0  0  0  0  0  0  0  0  0  0  0  0
    6.5959   -6.5143   15.2606 C   0  0  0  0  0  0  0  0  0  0  0  0
    5.7287   -7.9676   16.9587 C   0  0  0  0  0  0  0  0  0  0  0  0
    7.6332   -6.5041   17.3535 C   0  0  0  0  0  0  0  0  0  0  0  0
    3.8550  -10.6808   18.6840 N   0  0  0  0  0  0  0  0  0  0  0  0
   11.0986   -3.3658   21.2207 C   0  0  0  0  0  0  0  0  0  0  0  0
    1.1160  -11.8135   21.0849 C   0  0  0  0  0  0  0  0  0  0  0  0
    4.7306   -8.9915   17.4326 C   0  0  0  0  0  0  0  0  0  0  0  0
   -1.3063  -10.5114   21.2530 C   0  0  0  0  0  0  0  0  0  0  0  0
    3.4124   -9.2810   17.0553 N   0  0  0  0  0  0  0  0  0  0  0  0
    9.4002   -4.2777   15.9890 C   0  0  0  0  0  0  0  0  0  0  0  0
   11.2565   -2.8190   18.8531 C   0  0  0  0  0  0  0  0  0  0  0  0
    1.3860   -9.2081   16.0076 C   0  0  0  0  0  0  0  0  0  0  0  0
   -0.6049  -10.8692   22.4441 C   0  0  0  0  0  0  0  0  0  0  0  0
    7.5780   -5.9951   16.0165 C   0  0  0  0  0  0  0  0  0  0  0  0
   -0.7359  -10.8450   20.0542 C   0  0  0  0  0  0  0  0  0  0  0  0
    1.0240  -11.7443   18.6054 C   0  0  0  0  0  0  0  0  0  0  0  0
    2.6597   -8.7525   16.1422 C   0  0  0  0  0  0  0  0  0  0  0  0
   10.7697   -3.6382   19.8893 C   0  0  0  0  0  0  0  0  0  0  0  0
    1.5848  -10.7455   17.7777 C   0  0  0  0  0  0  0  0  0  0  0  0
    5.6785   -7.4130   15.7047 C   0  0  0  0  0  0  0  0  0  0  0  0
  1 19  2  0
  2 24  4  0
  2 28  4  0
  3 19  1  0
  4 26  4  0
  4 33  4  0
  5 20  4  0
  5 27  4  0
  6 18  4  0
  6 21  4  0
  7 13  4  0
  7 25  4  0
  8 16  4  0
  8 17  4  0
  9 14  4  0
  9 17  4  0
 10 14  4  0
 10 32  4  0
 11 20  4  0
 11 29  4  0
 11 30  1  0
 12 18  4  0
 12 23  4  0
 12 33  4  0
 13 14  4  0
 13 24  4  0
 15 28  4  0
 15 34  4  0
 16 21  1  0
 16 34  4  0
 17 28  4  0
 19 32  1  0
 21 23  4  0
 22 27  4  0
 22 29  4  0
 23 31  4  0
 25 32  4  0
 26 31  4  0
 30 33  1  0
M  END
$$$$

 Created by Python create_sdf_string function

 34 39  0  0  0  0  0  0  0  0999 V2000
   11.7748   -2.4134   21.4869 O   0  0  0  0  0  0  0  0  0  0  0  0
    8.4571   -5.0280   15.5489 C   0  0  0  0  0  0  0  0  0  0  0  0
   10.6373   -4.1527   22.1338 O   0  0  0  0  0  0  0  0  0  0  0  0
    0.8865  -10.1736   16.8062 N   0  0  0  0  0  0  0  0  0  0  0  0
    0.6363  -11.5685   22.3514 C   0  0  0  0  0  0  0  0  0  0  0  0
    4.9382   -9.8865   18.4135 C   0  0  0  0  0  0  0  0  0  0  0  0
   10.8301   -3.1290   17.5832 C   0  0  0  0  0  0  0  0  0  0  0  0
    6.7438   -7.4973   17.7359 C   0  0  0  0  0  0  0  0  0  0  0  0
    8.5781   -5.9390   18.1797 N   0  0  0  0  0  0  0  0  0  0  0  0
    9.9427   -4.7068   19.6371 C   0  0  0  0  0  0  0  0  0  0  0  0
    0.4794  -11.4482   19.9323 C   0  0  0  0  0  0  0  0  0  0  0  0
    2.8970  -10.2853   17.8533 C   0  0  0  0  0  0  0  0  0  0  0  0
    9.9066   -4.1176   17.2835 C   0  0  0  0  0  0  0  0  0  0  0  0
    9.4685   -4.9581   18.3697 C   0  0  0  0  0  0  0  0  0  0  0  0
    6.5959   -6.5143   15.2606 C   0  0  0  0  0  0  0  0  0  0  0  0
    5.7287   -7.9676   16.9587 C   0  0  0  0  0  0  0  0  0  0  0  0
    7.6332   -6.5041   17.3535 C   0  0  0  0  0  0  0  0  0  0  0  0
    3.8550  -10.6808   18.6840 N   0  0  0  0  0  0  0  0  0  0  0  0
   11.0986   -3.3658   21.2207 C   0  0  0  0  0  0  0  0  0  0  0  0
    1.1160  -11.8135   21.0849 C   0  0  0  0  0  0  0  0  0  0  0  0
    4.7306   -8.9915   17.4326 C   0  0  0  0  0  0  0  0  0  0  0  0
   -1.3063  -10.5114   21.2530 C   0  0  0  0  0  0  0  0  0  0  0  0
    3.4124   -9.2810   17.0553 N   0  0  0  0  0  0  0  0  0  0  0  0
    9.4002   -4.2777   15.9890 C   0  0  0  0  0  0  0  0  0  0  0  0
   11.2565   -2.8190   18.8531 C   0  0  0  0  0  0  0  0  0  0  0  0
    1.3860   -9.2081   16.0076 C   0  0  0  0  0  0  0  0  0  0  0  0
   -0.6049  -10.8692   22.4441 C   0  0  0  0  0  0  0  0  0  0  0  0
    7.5780   -5.9951   16.0165 C   0  0  0  0  0  0  0  0  0  0  0  0
   -0.7359  -10.8450   20.0542 C   0  0  0  0  0  0  0  0  0  0  0  0
    1.0240  -11.7443   18.6054 C   0  0  0  0  0  0  0  0  0  0  0  0
    2.6597   -8.7525   16.1422 C   0  0  0  0  0  0  0  0  0  0  0  0
   10.7697   -3.6382   19.8893 C   0  0  0  0  0  0  0  0  0  0  0  0
    1.5848  -10.7455   17.7777 C   0  0  0  0  0  0  0  0  0  0  0  0
    5.6785   -7.4130   15.7047 C   0  0  0  0  0  0  0  0  0  0  0  0
  1 19  2  0
  2 24  4  0
  2 28  4  0
  3 19  1  0
  4 26  4  0
  4 33  4  0
  5 20  4  0
  5 27  4  0
  6 18  4  0
  6 21  4  0
  7 13  4  0
  7 25  4  0
  8 16  4  0
  8 17  4  0
  9 14  4  0
  9 17  4  0
 10 14  4  0
 10 32  4  0
 11 20  4  0
 11 29  4  0
 11 30  1  0
 12 18  4  0
 12 23  4  0
 12 33  4  0
 13 14  4  0
 13 24  4  0
 15 28  4  0
 15 34  4  0
 16 21  1  0
 16 34  4  0
 17 28  4  0
 19 32  1  0
 21 23  4  0
 22 27  4  0
 22 29  4  0
 23 31  4  0
 25 32  4  0
 26 31  4  0
 30 33  1  0
M  END
$$$$

 Created by Python create_sdf_string function

 34 39  0  0  0  0  0  0  0  0999 V2000
   11.7748   -2.4134   21.4869 O   0  0  0  0  0  0  0  0  0  0  0  0
    8.4571   -5.0280   15.5489 C   0  0  0  0  0  0  0  0  0  0  0  0
   10.6373   -4.1527   22.1338 O   0  0  0  0  0  0  0  0  0  0  0  0
    0.8865  -10.1736   16.8062 N   0  0  0  0  0  0  0  0  0  0  0  0
    0.6363  -11.5685   22.3514 C   0  0  0  0  0  0  0  0  0  0  0  0
    4.9382   -9.8865   18.4135 C   0  0  0  0  0  0  0  0  0  0  0  0
   10.8301   -3.1290   17.5832 C   0  0  0  0  0  0  0  0  0  0  0  0
    6.7438   -7.4973   17.7359 C   0  0  0  0  0  0  0  0  0  0  0  0
    8.5781   -5.9390   18.1797 N   0  0  0  0  0  0  0  0  0  0  0  0
    9.9427   -4.7068   19.6371 C   0  0  0  0  0  0  0  0  0  0  0  0
    0.4794  -11.4482   19.9323 C   0  0  0  0  0  0  0  0  0  0  0  0
    2.8970  -10.2853   17.8533 C   0  0  0  0  0  0  0  0  0  0  0  0
    9.9066   -4.1176   17.2835 C   0  0  0  0  0  0  0  0  0  0  0  0
    9.4685   -4.9581   18.3697 C   0  0  0  0  0  0  0  0  0  0  0  0
    6.5959   -6.5143   15.2606 C   0  0  0  0  0  0  0  0  0  0  0  0
    5.7287   -7.9676   16.9587 C   0  0  0  0  0  0  0  0  0  0  0  0
    7.6332   -6.5041   17.3535 C   0  0  0  0  0  0  0  0  0  0  0  0
    3.8550  -10.6808   18.6840 N   0  0  0  0  0  0  0  0  0  0  0  0
   11.0986   -3.3658   21.2207 C   0  0  0  0  0  0  0  0  0  0  0  0
    1.1160  -11.8135   21.0849 C   0  0  0  0  0  0  0  0  0  0  0  0
    4.7306   -8.9915   17.4326 C   0  0  0  0  0  0  0  0  0  0  0  0
   -1.3063  -10.5114   21.2530 C   0  0  0  0  0  0  0  0  0  0  0  0
    3.4124   -9.2810   17.0553 N   0  0  0  0  0  0  0  0  0  0  0  0
    9.4002   -4.2777   15.9890 C   0  0  0  0  0  0  0  0  0  0  0  0
   11.2565   -2.8190   18.8531 C   0  0  0  0  0  0  0  0  0  0  0  0
    1.3860   -9.2081   16.0076 C   0  0  0  0  0  0  0  0  0  0  0  0
   -0.6049  -10.8692   22.4441 C   0  0  0  0  0  0  0  0  0  0  0  0
    7.5780   -5.9951   16.0165 C   0  0  0  0  0  0  0  0  0  0  0  0
   -0.7359  -10.8450   20.0542 C   0  0  0  0  0  0  0  0  0  0  0  0
    1.0240  -11.7443   18.6054 C   0  0  0  0  0  0  0  0  0  0  0  0
    2.6597   -8.7525   16.1422 C   0  0  0  0  0  0  0  0  0  0  0  0
   10.7697   -3.6382   19.8893 C   0  0  0  0  0  0  0  0  0  0  0  0
    1.5848  -10.7455   17.7777 C   0  0  0  0  0  0  0  0  0  0  0  0
    5.6785   -7.4130   15.7047 C   0  0  0  0  0  0  0  0  0  0  0  0
  1 19  2  0
  2 24  4  0
  2 28  4  0
  3 19  1  0
  4 26  4  0
  4 33  4  0
  5 20  4  0
  5 27  4  0
  6 18  4  0
  6 21  4  0
  7 13  4  0
  7 25  4  0
  8 16  4  0
  8 17  4  0
  9 14  4  0
  9 17  4  0
 10 14  4  0
 10 32  4  0
 11 20  4  0
 11 29  4  0
 11 30  1  0
 12 18  4  0
 12 23  4  0
 12 33  4  0
 13 14  4  0
 13 24  4  0
 15 28  4  0
 15 34  4  0
 16 21  1  0
 16 34  4  0
 17 28  4  0
 19 32  1  0
 21 23  4  0
 22 27  4  0
 22 29  4  0
 23 31  4  0
 25 32  4  0
 26 31  4  0
 30 33  1  0
M  END
$$$$

 Created by Python create_sdf_string function

 34 39  0  0  0  0  0  0  0  0999 V2000
   11.7748   -2.4134   21.4869 O   0  0  0  0  0  0  0  0  0  0  0  0
    8.4571   -5.0280   15.5489 C   0  0  0  0  0  0  0  0  0  0  0  0
   10.6373   -4.1527   22.1338 O   0  0  0  0  0  0  0  0  0  0  0  0
    0.8865  -10.1736   16.8062 N   0  0  0  0  0  0  0  0  0  0  0  0
    0.6363  -11.5685   22.3514 C   0  0  0  0  0  0  0  0  0  0  0  0
    4.9382   -9.8865   18.4135 C   0  0  0  0  0  0  0  0  0  0  0  0
   10.8301   -3.1290   17.5832 C   0  0  0  0  0  0  0  0  0  0  0  0
    6.7438   -7.4973   17.7359 C   0  0  0  0  0  0  0  0  0  0  0  0
    8.5781   -5.9390   18.1797 N   0  0  0  0  0  0  0  0  0  0  0  0
    9.9427   -4.7068   19.6371 C   0  0  0  0  0  0  0  0  0  0  0  0
    0.4794  -11.4482   19.9323 C   0  0  0  0  0  0  0  0  0  0  0  0
    2.8970  -10.2853   17.8533 C   0  0  0  0  0  0  0  0  0  0  0  0
    9.9066   -4.1176   17.2835 C   0  0  0  0  0  0  0  0  0  0  0  0
    9.4685   -4.9581   18.3697 C   0  0  0  0  0  0  0  0  0  0  0  0
    6.5959   -6.5143   15.2606 C   0  0  0  0  0  0  0  0  0  0  0  0
    5.7287   -7.9676   16.9587 C   0  0  0  0  0  0  0  0  0  0  0  0
    7.6332   -6.5041   17.3535 C   0  0  0  0  0  0  0  0  0  0  0  0
    3.8550  -10.6808   18.6840 N   0  0  0  0  0  0  0  0  0  0  0  0
   11.0986   -3.3658   21.2207 C   0  0  0  0  0  0  0  0  0  0  0  0
    1.1160  -11.8135   21.0849 C   0  0  0  0  0  0  0  0  0  0  0  0
    4.7306   -8.9915   17.4326 C   0  0  0  0  0  0  0  0  0  0  0  0
   -1.3063  -10.5114   21.2530 C   0  0  0  0  0  0  0  0  0  0  0  0
    3.4124   -9.2810   17.0553 N   0  0  0  0  0  0  0  0  0  0  0  0
    9.4002   -4.2777   15.9890 C   0  0  0  0  0  0  0  0  0  0  0  0
   11.2565   -2.8190   18.8531 C   0  0  0  0  0  0  0  0  0  0  0  0
    1.3860   -9.2081   16.0076 C   0  0  0  0  0  0  0  0  0  0  0  0
   -0.6049  -10.8692   22.4441 C   0  0  0  0  0  0  0  0  0  0  0  0
    7.5780   -5.9951   16.0165 C   0  0  0  0  0  0  0  0  0  0  0  0
   -0.7359  -10.8450   20.0542 C   0  0  0  0  0  0  0  0  0  0  0  0
    1.0240  -11.7443   18.6054 C   0  0  0  0  0  0  0  0  0  0  0  0
    2.6597   -8.7525   16.1422 C   0  0  0  0  0  0  0  0  0  0  0  0
   10.7697   -3.6382   19.8893 C   0  0  0  0  0  0  0  0  0  0  0  0
    1.5848  -10.7455   17.7777 C   0  0  0  0  0  0  0  0  0  0  0  0
    5.6785   -7.4130   15.7047 C   0  0  0  0  0  0  0  0  0  0  0  0
  1 19  2  0
  2 24  4  0
  2 28  4  0
  3 19  1  0
  4 26  4  0
  4 33  4  0
  5 20  4  0
  5 27  4  0
  6 18  4  0
  6 21  4  0
  7 13  4  0
  7 25  4  0
  8 16  4  0
  8 17  4  0
  9 14  4  0
  9 17  4  0
 10 14  4  0
 10 32  4  0
 11 20  4  0
 11 29  4  0
 11 30  1  0
 12 18  4  0
 12 23  4  0
 12 33  4  0
 13 14  4  0
 13 24  4  0
 15 28  4  0
 15 34  4  0
 16 21  1  0
 16 34  4  0
 17 28  4  0
 19 32  1  0
 21 23  4  0
 22 27  4  0
 22 29  4  0
 23 31  4  0
 25 32  4  0
 26 31  4  0
 30 33  1  0
M  END
$$$$

 Created by Python create_sdf_string function

 34 39  0  0  0  0  0  0  0  0999 V2000
   11.7748   -2.4134   21.4869 O   0  0  0  0  0  0  0  0  0  0  0  0
    8.4571   -5.0280   15.5489 C   0  0  0  0  0  0  0  0  0  0  0  0
   10.6373   -4.1527   22.1338 O   0  0  0  0  0  0  0  0  0  0  0  0
    0.8865  -10.1736   16.8062 N   0  0  0  0  0  0  0  0  0  0  0  0
    0.6363  -11.5685   22.3514 C   0  0  0  0  0  0  0  0  0  0  0  0
    4.9382   -9.8865   18.4135 C   0  0  0  0  0  0  0  0  0  0  0  0
   10.8301   -3.1290   17.5832 C   0  0  0  0  0  0  0  0  0  0  0  0
    6.7438   -7.4973   17.7359 C   0  0  0  0  0  0  0  0  0  0  0  0
    8.5781   -5.9390   18.1797 N   0  0  0  0  0  0  0  0  0  0  0  0
    9.9427   -4.7068   19.6371 C   0  0  0  0  0  0  0  0  0  0  0  0
    0.4794  -11.4482   19.9323 C   0  0  0  0  0  0  0  0  0  0  0  0
    2.8970  -10.2853   17.8533 C   0  0  0  0  0  0  0  0  0  0  0  0
    9.9066   -4.1176   17.2835 C   0  0  0  0  0  0  0  0  0  0  0  0
    9.4685   -4.9581   18.3697 C   0  0  0  0  0  0  0  0  0  0  0  0
    6.5959   -6.5143   15.2606 C   0  0  0  0  0  0  0  0  0  0  0  0
    5.7287   -7.9676   16.9587 C   0  0  0  0  0  0  0  0  0  0  0  0
    7.6332   -6.5041   17.3535 C   0  0  0  0  0  0  0  0  0  0  0  0
    3.8550  -10.6808   18.6840 N   0  0  0  0  0  0  0  0  0  0  0  0
   11.0986   -3.3658   21.2207 C   0  0  0  0  0  0  0  0  0  0  0  0
    1.1160  -11.8135   21.0849 C   0  0  0  0  0  0  0  0  0  0  0  0
    4.7306   -8.9915   17.4326 C   0  0  0  0  0  0  0  0  0  0  0  0
   -1.3063  -10.5114   21.2530 C   0  0  0  0  0  0  0  0  0  0  0  0
    3.4124   -9.2810   17.0553 N   0  0  0  0  0  0  0  0  0  0  0  0
    9.4002   -4.2777   15.9890 C   0  0  0  0  0  0  0  0  0  0  0  0
   11.2565   -2.8190   18.8531 C   0  0  0  0  0  0  0  0  0  0  0  0
    1.3860   -9.2081   16.0076 C   0  0  0  0  0  0  0  0  0  0  0  0
   -0.6049  -10.8692   22.4441 C   0  0  0  0  0  0  0  0  0  0  0  0
    7.5780   -5.9951   16.0165 C   0  0  0  0  0  0  0  0  0  0  0  0
   -0.7359  -10.8450   20.0542 C   0  0  0  0  0  0  0  0  0  0  0  0
    1.0240  -11.7443   18.6054 C   0  0  0  0  0  0  0  0  0  0  0  0
    2.6597   -8.7525   16.1422 C   0  0  0  0  0  0  0  0  0  0  0  0
   10.7697   -3.6382   19.8893 C   0  0  0  0  0  0  0  0  0  0  0  0
    1.5848  -10.7455   17.7777 C   0  0  0  0  0  0  0  0  0  0  0  0
    5.6785   -7.4130   15.7047 C   0  0  0  0  0  0  0  0  0  0  0  0
  1 19  2  0
  2 24  4  0
  2 28  4  0
  3 19  1  0
  4 26  4  0
  4 33  4  0
  5 20  4  0
  5 27  4  0
  6 18  4  0
  6 21  4  0
  7 13  4  0
  7 25  4  0
  8 16  4  0
  8 17  4  0
  9 14  4  0
  9 17  4  0
 10 14  4  0
 10 32  4  0
 11 20  4  0
 11 29  4  0
 11 30  1  0
 12 18  4  0
 12 23  4  0
 12 33  4  0
 13 14  4  0
 13 24  4  0
 15 28  4  0
 15 34  4  0
 16 21  1  0
 16 34  4  0
 17 28  4  0
 19 32  1  0
 21 23  4  0
 22 27  4  0
 22 29  4  0
 23 31  4  0
 25 32  4  0
 26 31  4  0
 30 33  1  0
M  END
$$$$

 Created by Python create_sdf_string function

 34 39  0  0  0  0  0  0  0  0999 V2000
   11.7748   -2.4134   21.4869 O   0  0  0  0  0  0  0  0  0  0  0  0
    8.4571   -5.0280   15.5489 C   0  0  0  0  0  0  0  0  0  0  0  0
   10.6373   -4.1527   22.1338 O   0  0  0  0  0  0  0  0  0  0  0  0
    0.8865  -10.1736   16.8062 N   0  0  0  0  0  0  0  0  0  0  0  0
    0.6363  -11.5685   22.3514 C   0  0  0  0  0  0  0  0  0  0  0  0
    4.9382   -9.8865   18.4135 C   0  0  0  0  0  0  0  0  0  0  0  0
   10.8301   -3.1290   17.5832 C   0  0  0  0  0  0  0  0  0  0  0  0
    6.7438   -7.4973   17.7359 C   0  0  0  0  0  0  0  0  0  0  0  0
    8.5781   -5.9390   18.1797 N   0  0  0  0  0  0  0  0  0  0  0  0
    9.9427   -4.7068   19.6371 C   0  0  0  0  0  0  0  0  0  0  0  0
    0.4794  -11.4482   19.9323 C   0  0  0  0  0  0  0  0  0  0  0  0
    2.8970  -10.2853   17.8533 C   0  0  0  0  0  0  0  0  0  0  0  0
    9.9066   -4.1176   17.2835 C   0  0  0  0  0  0  0  0  0  0  0  0
    9.4685   -4.9581   18.3697 C   0  0  0  0  0  0  0  0  0  0  0  0
    6.5959   -6.5143   15.2606 C   0  0  0  0  0  0  0  0  0  0  0  0
    5.7287   -7.9676   16.9587 C   0  0  0  0  0  0  0  0  0  0  0  0
    7.6332   -6.5041   17.3535 C   0  0  0  0  0  0  0  0  0  0  0  0
    3.8550  -10.6808   18.6840 N   0  0  0  0  0  0  0  0  0  0  0  0
   11.0986   -3.3658   21.2207 C   0  0  0  0  0  0  0  0  0  0  0  0
    1.1160  -11.8135   21.0849 C   0  0  0  0  0  0  0  0  0  0  0  0
    4.7306   -8.9915   17.4326 C   0  0  0  0  0  0  0  0  0  0  0  0
   -1.3063  -10.5114   21.2530 C   0  0  0  0  0  0  0  0  0  0  0  0
    3.4124   -9.2810   17.0553 N   0  0  0  0  0  0  0  0  0  0  0  0
    9.4002   -4.2777   15.9890 C   0  0  0  0  0  0  0  0  0  0  0  0
   11.2565   -2.8190   18.8531 C   0  0  0  0  0  0  0  0  0  0  0  0
    1.3860   -9.2081   16.0076 C   0  0  0  0  0  0  0  0  0  0  0  0
   -0.6049  -10.8692   22.4441 C   0  0  0  0  0  0  0  0  0  0  0  0
    7.5780   -5.9951   16.0165 C   0  0  0  0  0  0  0  0  0  0  0  0
   -0.7359  -10.8450   20.0542 C   0  0  0  0  0  0  0  0  0  0  0  0
    1.0240  -11.7443   18.6054 C   0  0  0  0  0  0  0  0  0  0  0  0
    2.6597   -8.7525   16.1422 C   0  0  0  0  0  0  0  0  0  0  0  0
   10.7697   -3.6382   19.8893 C   0  0  0  0  0  0  0  0  0  0  0  0
    1.5848  -10.7455   17.7777 C   0  0  0  0  0  0  0  0  0  0  0  0
    5.6785   -7.4130   15.7047 C   0  0  0  0  0  0  0  0  0  0  0  0
  1 19  2  0
  2 24  4  0
  2 28  4  0
  3 19  1  0
  4 26  4  0
  4 33  4  0
  5 20  4  0
  5 27  4  0
  6 18  4  0
  6 21  4  0
  7 13  4  0
  7 25  4  0
  8 16  4  0
  8 17  4  0
  9 14  4  0
  9 17  4  0
 10 14  4  0
 10 32  4  0
 11 20  4  0
 11 29  4  0
 11 30  1  0
 12 18  4  0
 12 23  4  0
 12 33  4  0
 13 14  4  0
 13 24  4  0
 15 28  4  0
 15 34  4  0
 16 21  1  0
 16 34  4  0
 17 28  4  0
 19 32  1  0
 21 23  4  0
 22 27  4  0
 22 29  4  0
 23 31  4  0
 25 32  4  0
 26 31  4  0
 30 33  1  0
M  END
$$$$

 Created by Python create_sdf_string function

 34 39  0  0  0  0  0  0  0  0999 V2000
   11.7748   -2.4134   21.4869 O   0  0  0  0  0  0  0  0  0  0  0  0
    8.4571   -5.0280   15.5489 C   0  0  0  0  0  0  0  0  0  0  0  0
   10.6373   -4.1527   22.1338 O   0  0  0  0  0  0  0  0  0  0  0  0
    0.8865  -10.1736   16.8062 N   0  0  0  0  0  0  0  0  0  0  0  0
    0.6363  -11.5685   22.3514 C   0  0  0  0  0  0  0  0  0  0  0  0
    4.9382   -9.8865   18.4135 C   0  0  0  0  0  0  0  0  0  0  0  0
   10.8301   -3.1290   17.5832 C   0  0  0  0  0  0  0  0  0  0  0  0
    6.7438   -7.4973   17.7359 C   0  0  0  0  0  0  0  0  0  0  0  0
    8.5781   -5.9390   18.1797 N   0  0  0  0  0  0  0  0  0  0  0  0
    9.9427   -4.7068   19.6371 C   0  0  0  0  0  0  0  0  0  0  0  0
    0.4794  -11.4482   19.9323 C   0  0  0  0  0  0  0  0  0  0  0  0
    2.8970  -10.2853   17.8533 C   0  0  0  0  0  0  0  0  0  0  0  0
    9.9066   -4.1176   17.2835 C   0  0  0  0  0  0  0  0  0  0  0  0
    9.4685   -4.9581   18.3697 C   0  0  0  0  0  0  0  0  0  0  0  0
    6.5959   -6.5143   15.2606 C   0  0  0  0  0  0  0  0  0  0  0  0
    5.7287   -7.9676   16.9587 C   0  0  0  0  0  0  0  0  0  0  0  0
    7.6332   -6.5041   17.3535 C   0  0  0  0  0  0  0  0  0  0  0  0
    3.8550  -10.6808   18.6840 N   0  0  0  0  0  0  0  0  0  0  0  0
   11.0986   -3.3658   21.2207 C   0  0  0  0  0  0  0  0  0  0  0  0
    1.1160  -11.8135   21.0849 C   0  0  0  0  0  0  0  0  0  0  0  0
    4.7306   -8.9915   17.4326 C   0  0  0  0  0  0  0  0  0  0  0  0
   -1.3063  -10.5114   21.2530 C   0  0  0  0  0  0  0  0  0  0  0  0
    3.4124   -9.2810   17.0553 N   0  0  0  0  0  0  0  0  0  0  0  0
    9.4002   -4.2777   15.9890 C   0  0  0  0  0  0  0  0  0  0  0  0
   11.2565   -2.8190   18.8531 C   0  0  0  0  0  0  0  0  0  0  0  0
    1.3860   -9.2081   16.0076 C   0  0  0  0  0  0  0  0  0  0  0  0
   -0.6049  -10.8692   22.4441 C   0  0  0  0  0  0  0  0  0  0  0  0
    7.5780   -5.9951   16.0165 C   0  0  0  0  0  0  0  0  0  0  0  0
   -0.7359  -10.8450   20.0542 C   0  0  0  0  0  0  0  0  0  0  0  0
    1.0240  -11.7443   18.6054 C   0  0  0  0  0  0  0  0  0  0  0  0
    2.6597   -8.7525   16.1422 C   0  0  0  0  0  0  0  0  0  0  0  0
   10.7697   -3.6382   19.8893 C   0  0  0  0  0  0  0  0  0  0  0  0
    1.5848  -10.7455   17.7777 C   0  0  0  0  0  0  0  0  0  0  0  0
    5.6785   -7.4130   15.7047 C   0  0  0  0  0  0  0  0  0  0  0  0
  1 19  2  0
  2 24  4  0
  2 28  4  0
  3 19  1  0
  4 26  4  0
  4 33  4  0
  5 20  4  0
  5 27  4  0
  6 18  4  0
  6 21  4  0
  7 13  4  0
  7 25  4  0
  8 16  4  0
  8 17  4  0
  9 14  4  0
  9 17  4  0
 10 14  4  0
 10 32  4  0
 11 20  4  0
 11 29  4  0
 11 30  1  0
 12 18  4  0
 12 23  4  0
 12 33  4  0
 13 14  4  0
 13 24  4  0
 15 28  4  0
 15 34  4  0
 16 21  1  0
 16 34  4  0
 17 28  4  0
 19 32  1  0
 21 23  4  0
 22 27  4  0
 22 29  4  0
 23 31  4  0
 25 32  4  0
 26 31  4  0
 30 33  1  0
M  END
$$$$

 Created by Python create_sdf_string function

 34 39  0  0  0  0  0  0  0  0999 V2000
   11.7748   -2.4134   21.4869 O   0  0  0  0  0  0  0  0  0  0  0  0
    8.4571   -5.0280   15.5489 C   0  0  0  0  0  0  0  0  0  0  0  0
   10.6373   -4.1527   22.1338 O   0  0  0  0  0  0  0  0  0  0  0  0
    0.8865  -10.1736   16.8062 N   0  0  0  0  0  0  0  0  0  0  0  0
    0.6363  -11.5685   22.3514 C   0  0  0  0  0  0  0  0  0  0  0  0
    4.9382   -9.8865   18.4135 C   0  0  0  0  0  0  0  0  0  0  0  0
   10.8301   -3.1290   17.5832 C   0  0  0  0  0  0  0  0  0  0  0  0
    6.7438   -7.4973   17.7359 C   0  0  0  0  0  0  0  0  0  0  0  0
    8.5781   -5.9390   18.1797 N   0  0  0  0  0  0  0  0  0  0  0  0
    9.9427   -4.7068   19.6371 C   0  0  0  0  0  0  0  0  0  0  0  0
    0.4794  -11.4482   19.9323 C   0  0  0  0  0  0  0  0  0  0  0  0
    2.8970  -10.2853   17.8533 C   0  0  0  0  0  0  0  0  0  0  0  0
    9.9066   -4.1176   17.2835 C   0  0  0  0  0  0  0  0  0  0  0  0
    9.4685   -4.9581   18.3697 C   0  0  0  0  0  0  0  0  0  0  0  0
    6.5959   -6.5143   15.2606 C   0  0  0  0  0  0  0  0  0  0  0  0
    5.7287   -7.9676   16.9587 C   0  0  0  0  0  0  0  0  0  0  0  0
    7.6332   -6.5041   17.3535 C   0  0  0  0  0  0  0  0  0  0  0  0
    3.8550  -10.6808   18.6840 N   0  0  0  0  0  0  0  0  0  0  0  0
   11.0986   -3.3658   21.2207 C   0  0  0  0  0  0  0  0  0  0  0  0
    1.1160  -11.8135   21.0849 C   0  0  0  0  0  0  0  0  0  0  0  0
    4.7306   -8.9915   17.4326 C   0  0  0  0  0  0  0  0  0  0  0  0
   -1.3063  -10.5114   21.2530 C   0  0  0  0  0  0  0  0  0  0  0  0
    3.4124   -9.2810   17.0553 N   0  0  0  0  0  0  0  0  0  0  0  0
    9.4002   -4.2777   15.9890 C   0  0  0  0  0  0  0  0  0  0  0  0
   11.2565   -2.8190   18.8531 C   0  0  0  0  0  0  0  0  0  0  0  0
    1.3860   -9.2081   16.0076 C   0  0  0  0  0  0  0  0  0  0  0  0
   -0.6049  -10.8692   22.4441 C   0  0  0  0  0  0  0  0  0  0  0  0
    7.5780   -5.9951   16.0165 C   0  0  0  0  0  0  0  0  0  0  0  0
   -0.7359  -10.8450   20.0542 C   0  0  0  0  0  0  0  0  0  0  0  0
    1.0240  -11.7443   18.6054 C   0  0  0  0  0  0  0  0  0  0  0  0
    2.6597   -8.7525   16.1422 C   0  0  0  0  0  0  0  0  0  0  0  0
   10.7697   -3.6382   19.8893 C   0  0  0  0  0  0  0  0  0  0  0  0
    1.5848  -10.7455   17.7777 C   0  0  0  0  0  0  0  0  0  0  0  0
    5.6785   -7.4130   15.7047 C   0  0  0  0  0  0  0  0  0  0  0  0
  1 19  2  0
  2 24  4  0
  2 28  4  0
  3 19  1  0
  4 26  4  0
  4 33  4  0
  5 20  4  0
  5 27  4  0
  6 18  4  0
  6 21  4  0
  7 13  4  0
  7 25  4  0
  8 16  4  0
  8 17  4  0
  9 14  4  0
  9 17  4  0
 10 14  4  0
 10 32  4  0
 11 20  4  0
 11 29  4  0
 11 30  1  0
 12 18  4  0
 12 23  4  0
 12 33  4  0
 13 14  4  0
 13 24  4  0
 15 28  4  0
 15 34  4  0
 16 21  1  0
 16 34  4  0
 17 28  4  0
 19 32  1  0
 21 23  4  0
 22 27  4  0
 22 29  4  0
 23 31  4  0
 25 32  4  0
 26 31  4  0
 30 33  1  0
M  END
$$$$

 Created by Python create_sdf_string function

 34 39  0  0  0  0  0  0  0  0999 V2000
   11.7748   -2.4134   21.4869 O   0  0  0  0  0  0  0  0  0  0  0  0
    8.4571   -5.0280   15.5489 C   0  0  0  0  0  0  0  0  0  0  0  0
   10.6373   -4.1527   22.1338 O   0  0  0  0  0  0  0  0  0  0  0  0
    0.8865  -10.1736   16.8062 N   0  0  0  0  0  0  0  0  0  0  0  0
    0.6363  -11.5685   22.3514 C   0  0  0  0  0  0  0  0  0  0  0  0
    4.9382   -9.8865   18.4135 C   0  0  0  0  0  0  0  0  0  0  0  0
   10.8301   -3.1290   17.5832 C   0  0  0  0  0  0  0  0  0  0  0  0
    6.7438   -7.4973   17.7359 C   0  0  0  0  0  0  0  0  0  0  0  0
    8.5781   -5.9390   18.1797 N   0  0  0  0  0  0  0  0  0  0  0  0
    9.9427   -4.7068   19.6371 C   0  0  0  0  0  0  0  0  0  0  0  0
    0.4794  -11.4482   19.9323 C   0  0  0  0  0  0  0  0  0  0  0  0
    2.8970  -10.2853   17.8533 C   0  0  0  0  0  0  0  0  0  0  0  0
    9.9066   -4.1176   17.2835 C   0  0  0  0  0  0  0  0  0  0  0  0
    9.4685   -4.9581   18.3697 C   0  0  0  0  0  0  0  0  0  0  0  0
    6.5959   -6.5143   15.2606 C   0  0  0  0  0  0  0  0  0  0  0  0
    5.7287   -7.9676   16.9587 C   0  0  0  0  0  0  0  0  0  0  0  0
    7.6332   -6.5041   17.3535 C   0  0  0  0  0  0  0  0  0  0  0  0
    3.8550  -10.6808   18.6840 N   0  0  0  0  0  0  0  0  0  0  0  0
   11.0986   -3.3658   21.2207 C   0  0  0  0  0  0  0  0  0  0  0  0
    1.1160  -11.8135   21.0849 C   0  0  0  0  0  0  0  0  0  0  0  0
    4.7306   -8.9915   17.4326 C   0  0  0  0  0  0  0  0  0  0  0  0
   -1.3063  -10.5114   21.2530 C   0  0  0  0  0  0  0  0  0  0  0  0
    3.4124   -9.2810   17.0553 N   0  0  0  0  0  0  0  0  0  0  0  0
    9.4002   -4.2777   15.9890 C   0  0  0  0  0  0  0  0  0  0  0  0
   11.2565   -2.8190   18.8531 C   0  0  0  0  0  0  0  0  0  0  0  0
    1.3860   -9.2081   16.0076 C   0  0  0  0  0  0  0  0  0  0  0  0
   -0.6049  -10.8692   22.4441 C   0  0  0  0  0  0  0  0  0  0  0  0
    7.5780   -5.9951   16.0165 C   0  0  0  0  0  0  0  0  0  0  0  0
   -0.7359  -10.8450   20.0542 C   0  0  0  0  0  0  0  0  0  0  0  0
    1.0240  -11.7443   18.6054 C   0  0  0  0  0  0  0  0  0  0  0  0
    2.6597   -8.7525   16.1422 C   0  0  0  0  0  0  0  0  0  0  0  0
   10.7697   -3.6382   19.8893 C   0  0  0  0  0  0  0  0  0  0  0  0
    1.5848  -10.7455   17.7777 C   0  0  0  0  0  0  0  0  0  0  0  0
    5.6785   -7.4130   15.7047 C   0  0  0  0  0  0  0  0  0  0  0  0
  1 19  2  0
  2 24  4  0
  2 28  4  0
  3 19  1  0
  4 26  4  0
  4 33  4  0
  5 20  4  0
  5 27  4  0
  6 18  4  0
  6 21  4  0
  7 13  4  0
  7 25  4  0
  8 16  4  0
  8 17  4  0
  9 14  4  0
  9 17  4  0
 10 14  4  0
 10 32  4  0
 11 20  4  0
 11 29  4  0
 11 30  1  0
 12 18  4  0
 12 23  4  0
 12 33  4  0
 13 14  4  0
 13 24  4  0
 15 28  4  0
 15 34  4  0
 16 21  1  0
 16 34  4  0
 17 28  4  0
 19 32  1  0
 21 23  4  0
 22 27  4  0
 22 29  4  0
 23 31  4  0
 25 32  4  0
 26 31  4  0
 30 33  1  0
M  END
$$$$

 Created by Python create_sdf_string function

 34 39  0  0  0  0  0  0  0  0999 V2000
   11.7748   -2.4134   21.4869 O   0  0  0  0  0  0  0  0  0  0  0  0
    8.4571   -5.0280   15.5489 C   0  0  0  0  0  0  0  0  0  0  0  0
   10.6373   -4.1527   22.1338 O   0  0  0  0  0  0  0  0  0  0  0  0
    0.8865  -10.1736   16.8062 N   0  0  0  0  0  0  0  0  0  0  0  0
    0.6363  -11.5685   22.3514 C   0  0  0  0  0  0  0  0  0  0  0  0
    4.9382   -9.8865   18.4135 C   0  0  0  0  0  0  0  0  0  0  0  0
   10.8301   -3.1290   17.5832 C   0  0  0  0  0  0  0  0  0  0  0  0
    6.7438   -7.4973   17.7359 C   0  0  0  0  0  0  0  0  0  0  0  0
    8.5781   -5.9390   18.1797 N   0  0  0  0  0  0  0  0  0  0  0  0
    9.9427   -4.7068   19.6371 C   0  0  0  0  0  0  0  0  0  0  0  0
    0.4794  -11.4482   19.9323 C   0  0  0  0  0  0  0  0  0  0  0  0
    2.8970  -10.2853   17.8533 C   0  0  0  0  0  0  0  0  0  0  0  0
    9.9066   -4.1176   17.2835 C   0  0  0  0  0  0  0  0  0  0  0  0
    9.4685   -4.9581   18.3697 C   0  0  0  0  0  0  0  0  0  0  0  0
    6.5959   -6.5143   15.2606 C   0  0  0  0  0  0  0  0  0  0  0  0
    5.7287   -7.9676   16.9587 C   0  0  0  0  0  0  0  0  0  0  0  0
    7.6332   -6.5041   17.3535 C   0  0  0  0  0  0  0  0  0  0  0  0
    3.8550  -10.6808   18.6840 N   0  0  0  0  0  0  0  0  0  0  0  0
   11.0986   -3.3658   21.2207 C   0  0  0  0  0  0  0  0  0  0  0  0
    1.1160  -11.8135   21.0849 C   0  0  0  0  0  0  0  0  0  0  0  0
    4.7306   -8.9915   17.4326 C   0  0  0  0  0  0  0  0  0  0  0  0
   -1.3063  -10.5114   21.2530 C   0  0  0  0  0  0  0  0  0  0  0  0
    3.4124   -9.2810   17.0553 N   0  0  0  0  0  0  0  0  0  0  0  0
    9.4002   -4.2777   15.9890 C   0  0  0  0  0  0  0  0  0  0  0  0
   11.2565   -2.8190   18.8531 C   0  0  0  0  0  0  0  0  0  0  0  0
    1.3860   -9.2081   16.0076 C   0  0  0  0  0  0  0  0  0  0  0  0
   -0.6049  -10.8692   22.4441 C   0  0  0  0  0  0  0  0  0  0  0  0
    7.5780   -5.9951   16.0165 C   0  0  0  0  0  0  0  0  0  0  0  0
   -0.7359  -10.8450   20.0542 C   0  0  0  0  0  0  0  0  0  0  0  0
    1.0240  -11.7443   18.6054 C   0  0  0  0  0  0  0  0  0  0  0  0
    2.6597   -8.7525   16.1422 C   0  0  0  0  0  0  0  0  0  0  0  0
   10.7697   -3.6382   19.8893 C   0  0  0  0  0  0  0  0  0  0  0  0
    1.5848  -10.7455   17.7777 C   0  0  0  0  0  0  0  0  0  0  0  0
    5.6785   -7.4130   15.7047 C   0  0  0  0  0  0  0  0  0  0  0  0
  1 19  2  0
  2 24  4  0
  2 28  4  0
  3 19  1  0
  4 26  4  0
  4 33  4  0
  5 20  4  0
  5 27  4  0
  6 18  4  0
  6 21  4  0
  7 13  4  0
  7 25  4  0
  8 16  4  0
  8 17  4  0
  9 14  4  0
  9 17  4  0
 10 14  4  0
 10 32  4  0
 11 20  4  0
 11 29  4  0
 11 30  1  0
 12 18  4  0
 12 23  4  0
 12 33  4  0
 13 14  4  0
 13 24  4  0
 15 28  4  0
 15 34  4  0
 16 21  1  0
 16 34  4  0
 17 28  4  0
 19 32  1  0
 21 23  4  0
 22 27  4  0
 22 29  4  0
 23 31  4  0
 25 32  4  0
 26 31  4  0
 30 33  1  0
M  END
$$$$

 Created by Python create_sdf_string function

 34 39  0  0  0  0  0  0  0  0999 V2000
   11.7748   -2.4134   21.4869 O   0  0  0  0  0  0  0  0  0  0  0  0
    8.4571   -5.0280   15.5489 C   0  0  0  0  0  0  0  0  0  0  0  0
   10.6373   -4.1527   22.1338 O   0  0  0  0  0  0  0  0  0  0  0  0
    0.8865  -10.1736   16.8062 N   0  0  0  0  0  0  0  0  0  0  0  0
    0.6363  -11.5685   22.3514 C   0  0  0  0  0  0  0  0  0  0  0  0
    4.9382   -9.8865   18.4135 C   0  0  0  0  0  0  0  0  0  0  0  0
   10.8301   -3.1290   17.5832 C   0  0  0  0  0  0  0  0  0  0  0  0
    6.7438   -7.4973   17.7359 C   0  0  0  0  0  0  0  0  0  0  0  0
    8.5781   -5.9390   18.1797 N   0  0  0  0  0  0  0  0  0  0  0  0
    9.9427   -4.7068   19.6371 C   0  0  0  0  0  0  0  0  0  0  0  0
    0.4794  -11.4482   19.9323 C   0  0  0  0  0  0  0  0  0  0  0  0
    2.8970  -10.2853   17.8533 C   0  0  0  0  0  0  0  0  0  0  0  0
    9.9066   -4.1176   17.2835 C   0  0  0  0  0  0  0  0  0  0  0  0
    9.4685   -4.9581   18.3697 C   0  0  0  0  0  0  0  0  0  0  0  0
    6.5959   -6.5143   15.2606 C   0  0  0  0  0  0  0  0  0  0  0  0
    5.7287   -7.9676   16.9587 C   0  0  0  0  0  0  0  0  0  0  0  0
    7.6332   -6.5041   17.3535 C   0  0  0  0  0  0  0  0  0  0  0  0
    3.8550  -10.6808   18.6840 N   0  0  0  0  0  0  0  0  0  0  0  0
   11.0986   -3.3658   21.2207 C   0  0  0  0  0  0  0  0  0  0  0  0
    1.1160  -11.8135   21.0849 C   0  0  0  0  0  0  0  0  0  0  0  0
    4.7306   -8.9915   17.4326 C   0  0  0  0  0  0  0  0  0  0  0  0
   -1.3063  -10.5114   21.2530 C   0  0  0  0  0  0  0  0  0  0  0  0
    3.4124   -9.2810   17.0553 N   0  0  0  0  0  0  0  0  0  0  0  0
    9.4002   -4.2777   15.9890 C   0  0  0  0  0  0  0  0  0  0  0  0
   11.2565   -2.8190   18.8531 C   0  0  0  0  0  0  0  0  0  0  0  0
    1.3860   -9.2081   16.0076 C   0  0  0  0  0  0  0  0  0  0  0  0
   -0.6049  -10.8692   22.4441 C   0  0  0  0  0  0  0  0  0  0  0  0
    7.5780   -5.9951   16.0165 C   0  0  0  0  0  0  0  0  0  0  0  0
   -0.7359  -10.8450   20.0542 C   0  0  0  0  0  0  0  0  0  0  0  0
    1.0240  -11.7443   18.6054 C   0  0  0  0  0  0  0  0  0  0  0  0
    2.6597   -8.7525   16.1422 C   0  0  0  0  0  0  0  0  0  0  0  0
   10.7697   -3.6382   19.8893 C   0  0  0  0  0  0  0  0  0  0  0  0
    1.5848  -10.7455   17.7777 C   0  0  0  0  0  0  0  0  0  0  0  0
    5.6785   -7.4130   15.7047 C   0  0  0  0  0  0  0  0  0  0  0  0
  1 19  2  0
  2 24  4  0
  2 28  4  0
  3 19  1  0
  4 26  4  0
  4 33  4  0
  5 20  4  0
  5 27  4  0
  6 18  4  0
  6 21  4  0
  7 13  4  0
  7 25  4  0
  8 16  4  0
  8 17  4  0
  9 14  4  0
  9 17  4  0
 10 14  4  0
 10 32  4  0
 11 20  4  0
 11 29  4  0
 11 30  1  0
 12 18  4  0
 12 23  4  0
 12 33  4  0
 13 14  4  0
 13 24  4  0
 15 28  4  0
 15 34  4  0
 16 21  1  0
 16 34  4  0
 17 28  4  0
 19 32  1  0
 21 23  4  0
 22 27  4  0
 22 29  4  0
 23 31  4  0
 25 32  4  0
 26 31  4  0
 30 33  1  0
M  END
$$$$

 Created by Python create_sdf_string function

 34 39  0  0  0  0  0  0  0  0999 V2000
   11.7748   -2.4134   21.4869 O   0  0  0  0  0  0  0  0  0  0  0  0
    8.4571   -5.0280   15.5489 C   0  0  0  0  0  0  0  0  0  0  0  0
   10.6373   -4.1527   22.1338 O   0  0  0  0  0  0  0  0  0  0  0  0
    0.8865  -10.1736   16.8062 N   0  0  0  0  0  0  0  0  0  0  0  0
    0.6363  -11.5685   22.3514 C   0  0  0  0  0  0  0  0  0  0  0  0
    4.9382   -9.8865   18.4135 C   0  0  0  0  0  0  0  0  0  0  0  0
   10.8301   -3.1290   17.5832 C   0  0  0  0  0  0  0  0  0  0  0  0
    6.7438   -7.4973   17.7359 C   0  0  0  0  0  0  0  0  0  0  0  0
    8.5781   -5.9390   18.1797 N   0  0  0  0  0  0  0  0  0  0  0  0
    9.9427   -4.7068   19.6371 C   0  0  0  0  0  0  0  0  0  0  0  0
    0.4794  -11.4482   19.9323 C   0  0  0  0  0  0  0  0  0  0  0  0
    2.8970  -10.2853   17.8533 C   0  0  0  0  0  0  0  0  0  0  0  0
    9.9066   -4.1176   17.2835 C   0  0  0  0  0  0  0  0  0  0  0  0
    9.4685   -4.9581   18.3697 C   0  0  0  0  0  0  0  0  0  0  0  0
    6.5959   -6.5143   15.2606 C   0  0  0  0  0  0  0  0  0  0  0  0
    5.7287   -7.9676   16.9587 C   0  0  0  0  0  0  0  0  0  0  0  0
    7.6332   -6.5041   17.3535 C   0  0  0  0  0  0  0  0  0  0  0  0
    3.8550  -10.6808   18.6840 N   0  0  0  0  0  0  0  0  0  0  0  0
   11.0986   -3.3658   21.2207 C   0  0  0  0  0  0  0  0  0  0  0  0
    1.1160  -11.8135   21.0849 C   0  0  0  0  0  0  0  0  0  0  0  0
    4.7306   -8.9915   17.4326 C   0  0  0  0  0  0  0  0  0  0  0  0
   -1.3063  -10.5114   21.2530 C   0  0  0  0  0  0  0  0  0  0  0  0
    3.4124   -9.2810   17.0553 N   0  0  0  0  0  0  0  0  0  0  0  0
    9.4002   -4.2777   15.9890 C   0  0  0  0  0  0  0  0  0  0  0  0
   11.2565   -2.8190   18.8531 C   0  0  0  0  0  0  0  0  0  0  0  0
    1.3860   -9.2081   16.0076 C   0  0  0  0  0  0  0  0  0  0  0  0
   -0.6049  -10.8692   22.4441 C   0  0  0  0  0  0  0  0  0  0  0  0
    7.5780   -5.9951   16.0165 C   0  0  0  0  0  0  0  0  0  0  0  0
   -0.7359  -10.8450   20.0542 C   0  0  0  0  0  0  0  0  0  0  0  0
    1.0240  -11.7443   18.6054 C   0  0  0  0  0  0  0  0  0  0  0  0
    2.6597   -8.7525   16.1422 C   0  0  0  0  0  0  0  0  0  0  0  0
   10.7697   -3.6382   19.8893 C   0  0  0  0  0  0  0  0  0  0  0  0
    1.5848  -10.7455   17.7777 C   0  0  0  0  0  0  0  0  0  0  0  0
    5.6785   -7.4130   15.7047 C   0  0  0  0  0  0  0  0  0  0  0  0
  1 19  2  0
  2 24  4  0
  2 28  4  0
  3 19  1  0
  4 26  4  0
  4 33  4  0
  5 20  4  0
  5 27  4  0
  6 18  4  0
  6 21  4  0
  7 13  4  0
  7 25  4  0
  8 16  4  0
  8 17  4  0
  9 14  4  0
  9 17  4  0
 10 14  4  0
 10 32  4  0
 11 20  4  0
 11 29  4  0
 11 30  1  0
 12 18  4  0
 12 23  4  0
 12 33  4  0
 13 14  4  0
 13 24  4  0
 15 28  4  0
 15 34  4  0
 16 21  1  0
 16 34  4  0
 17 28  4  0
 19 32  1  0
 21 23  4  0
 22 27  4  0
 22 29  4  0
 23 31  4  0
 25 32  4  0
 26 31  4  0
 30 33  1  0
M  END
$$$$

 Created by Python create_sdf_string function

 34 39  0  0  0  0  0  0  0  0999 V2000
   11.7748   -2.4134   21.4869 O   0  0  0  0  0  0  0  0  0  0  0  0
    8.4571   -5.0280   15.5489 C   0  0  0  0  0  0  0  0  0  0  0  0
   10.6373   -4.1527   22.1338 O   0  0  0  0  0  0  0  0  0  0  0  0
    0.8865  -10.1736   16.8062 N   0  0  0  0  0  0  0  0  0  0  0  0
    0.6363  -11.5685   22.3514 C   0  0  0  0  0  0  0  0  0  0  0  0
    4.9382   -9.8865   18.4135 C   0  0  0  0  0  0  0  0  0  0  0  0
   10.8301   -3.1290   17.5832 C   0  0  0  0  0  0  0  0  0  0  0  0
    6.7438   -7.4973   17.7359 C   0  0  0  0  0  0  0  0  0  0  0  0
    8.5781   -5.9390   18.1797 N   0  0  0  0  0  0  0  0  0  0  0  0
    9.9427   -4.7068   19.6371 C   0  0  0  0  0  0  0  0  0  0  0  0
    0.4794  -11.4482   19.9323 C   0  0  0  0  0  0  0  0  0  0  0  0
    2.8970  -10.2853   17.8533 C   0  0  0  0  0  0  0  0  0  0  0  0
    9.9066   -4.1176   17.2835 C   0  0  0  0  0  0  0  0  0  0  0  0
    9.4685   -4.9581   18.3697 C   0  0  0  0  0  0  0  0  0  0  0  0
    6.5959   -6.5143   15.2606 C   0  0  0  0  0  0  0  0  0  0  0  0
    5.7287   -7.9676   16.9587 C   0  0  0  0  0  0  0  0  0  0  0  0
    7.6332   -6.5041   17.3535 C   0  0  0  0  0  0  0  0  0  0  0  0
    3.8550  -10.6808   18.6840 N   0  0  0  0  0  0  0  0  0  0  0  0
   11.0986   -3.3658   21.2207 C   0  0  0  0  0  0  0  0  0  0  0  0
    1.1160  -11.8135   21.0849 C   0  0  0  0  0  0  0  0  0  0  0  0
    4.7306   -8.9915   17.4326 C   0  0  0  0  0  0  0  0  0  0  0  0
   -1.3063  -10.5114   21.2530 C   0  0  0  0  0  0  0  0  0  0  0  0
    3.4124   -9.2810   17.0553 N   0  0  0  0  0  0  0  0  0  0  0  0
    9.4002   -4.2777   15.9890 C   0  0  0  0  0  0  0  0  0  0  0  0
   11.2565   -2.8190   18.8531 C   0  0  0  0  0  0  0  0  0  0  0  0
    1.3860   -9.2081   16.0076 C   0  0  0  0  0  0  0  0  0  0  0  0
   -0.6049  -10.8692   22.4441 C   0  0  0  0  0  0  0  0  0  0  0  0
    7.5780   -5.9951   16.0165 C   0  0  0  0  0  0  0  0  0  0  0  0
   -0.7359  -10.8450   20.0542 C   0  0  0  0  0  0  0  0  0  0  0  0
    1.0240  -11.7443   18.6054 C   0  0  0  0  0  0  0  0  0  0  0  0
    2.6597   -8.7525   16.1422 C   0  0  0  0  0  0  0  0  0  0  0  0
   10.7697   -3.6382   19.8893 C   0  0  0  0  0  0  0  0  0  0  0  0
    1.5848  -10.7455   17.7777 C   0  0  0  0  0  0  0  0  0  0  0  0
    5.6785   -7.4130   15.7047 C   0  0  0  0  0  0  0  0  0  0  0  0
  1 19  2  0
  2 24  4  0
  2 28  4  0
  3 19  1  0
  4 26  4  0
  4 33  4  0
  5 20  4  0
  5 27  4  0
  6 18  4  0
  6 21  4  0
  7 13  4  0
  7 25  4  0
  8 16  4  0
  8 17  4  0
  9 14  4  0
  9 17  4  0
 10 14  4  0
 10 32  4  0
 11 20  4  0
 11 29  4  0
 11 30  1  0
 12 18  4  0
 12 23  4  0
 12 33  4  0
 13 14  4  0
 13 24  4  0
 15 28  4  0
 15 34  4  0
 16 21  1  0
 16 34  4  0
 17 28  4  0
 19 32  1  0
 21 23  4  0
 22 27  4  0
 22 29  4  0
 23 31  4  0
 25 32  4  0
 26 31  4  0
 30 33  1  0
M  END
$$$$

 Created by Python create_sdf_string function

 34 39  0  0  0  0  0  0  0  0999 V2000
   11.7748   -2.4134   21.4869 O   0  0  0  0  0  0  0  0  0  0  0  0
    8.4571   -5.0280   15.5489 C   0  0  0  0  0  0  0  0  0  0  0  0
   10.6373   -4.1527   22.1338 O   0  0  0  0  0  0  0  0  0  0  0  0
    0.8865  -10.1736   16.8062 N   0  0  0  0  0  0  0  0  0  0  0  0
    0.6363  -11.5685   22.3514 C   0  0  0  0  0  0  0  0  0  0  0  0
    4.9382   -9.8865   18.4135 C   0  0  0  0  0  0  0  0  0  0  0  0
   10.8301   -3.1290   17.5832 C   0  0  0  0  0  0  0  0  0  0  0  0
    6.7438   -7.4973   17.7359 C   0  0  0  0  0  0  0  0  0  0  0  0
    8.5781   -5.9390   18.1797 N   0  0  0  0  0  0  0  0  0  0  0  0
    9.9427   -4.7068   19.6371 C   0  0  0  0  0  0  0  0  0  0  0  0
    0.4794  -11.4482   19.9323 C   0  0  0  0  0  0  0  0  0  0  0  0
    2.8970  -10.2853   17.8533 C   0  0  0  0  0  0  0  0  0  0  0  0
    9.9066   -4.1176   17.2835 C   0  0  0  0  0  0  0  0  0  0  0  0
    9.4685   -4.9581   18.3697 C   0  0  0  0  0  0  0  0  0  0  0  0
    6.5959   -6.5143   15.2606 C   0  0  0  0  0  0  0  0  0  0  0  0
    5.7287   -7.9676   16.9587 C   0  0  0  0  0  0  0  0  0  0  0  0
    7.6332   -6.5041   17.3535 C   0  0  0  0  0  0  0  0  0  0  0  0
    3.8550  -10.6808   18.6840 N   0  0  0  0  0  0  0  0  0  0  0  0
   11.0986   -3.3658   21.2207 C   0  0  0  0  0  0  0  0  0  0  0  0
    1.1160  -11.8135   21.0849 C   0  0  0  0  0  0  0  0  0  0  0  0
    4.7306   -8.9915   17.4326 C   0  0  0  0  0  0  0  0  0  0  0  0
   -1.3063  -10.5114   21.2530 C   0  0  0  0  0  0  0  0  0  0  0  0
    3.4124   -9.2810   17.0553 N   0  0  0  0  0  0  0  0  0  0  0  0
    9.4002   -4.2777   15.9890 C   0  0  0  0  0  0  0  0  0  0  0  0
   11.2565   -2.8190   18.8531 C   0  0  0  0  0  0  0  0  0  0  0  0
    1.3860   -9.2081   16.0076 C   0  0  0  0  0  0  0  0  0  0  0  0
   -0.6049  -10.8692   22.4441 C   0  0  0  0  0  0  0  0  0  0  0  0
    7.5780   -5.9951   16.0165 C   0  0  0  0  0  0  0  0  0  0  0  0
   -0.7359  -10.8450   20.0542 C   0  0  0  0  0  0  0  0  0  0  0  0
    1.0240  -11.7443   18.6054 C   0  0  0  0  0  0  0  0  0  0  0  0
    2.6597   -8.7525   16.1422 C   0  0  0  0  0  0  0  0  0  0  0  0
   10.7697   -3.6382   19.8893 C   0  0  0  0  0  0  0  0  0  0  0  0
    1.5848  -10.7455   17.7777 C   0  0  0  0  0  0  0  0  0  0  0  0
    5.6785   -7.4130   15.7047 C   0  0  0  0  0  0  0  0  0  0  0  0
  1 19  2  0
  2 24  4  0
  2 28  4  0
  3 19  1  0
  4 26  4  0
  4 33  4  0
  5 20  4  0
  5 27  4  0
  6 18  4  0
  6 21  4  0
  7 13  4  0
  7 25  4  0
  8 16  4  0
  8 17  4  0
  9 14  4  0
  9 17  4  0
 10 14  4  0
 10 32  4  0
 11 20  4  0
 11 29  4  0
 11 30  1  0
 12 18  4  0
 12 23  4  0
 12 33  4  0
 13 14  4  0
 13 24  4  0
 15 28  4  0
 15 34  4  0
 16 21  1  0
 16 34  4  0
 17 28  4  0
 19 32  1  0
 21 23  4  0
 22 27  4  0
 22 29  4  0
 23 31  4  0
 25 32  4  0
 26 31  4  0
 30 33  1  0
M  END
$$$$

 Created by Python create_sdf_string function

 34 39  0  0  0  0  0  0  0  0999 V2000
   11.7748   -2.4134   21.4869 O   0  0  0  0  0  0  0  0  0  0  0  0
    8.4571   -5.0280   15.5489 C   0  0  0  0  0  0  0  0  0  0  0  0
   10.6373   -4.1527   22.1338 O   0  0  0  0  0  0  0  0  0  0  0  0
    0.8865  -10.1736   16.8062 N   0  0  0  0  0  0  0  0  0  0  0  0
    0.6363  -11.5685   22.3514 C   0  0  0  0  0  0  0  0  0  0  0  0
    4.9382   -9.8865   18.4135 C   0  0  0  0  0  0  0  0  0  0  0  0
   10.8301   -3.1290   17.5832 C   0  0  0  0  0  0  0  0  0  0  0  0
    6.7438   -7.4973   17.7359 C   0  0  0  0  0  0  0  0  0  0  0  0
    8.5781   -5.9390   18.1797 N   0  0  0  0  0  0  0  0  0  0  0  0
    9.9427   -4.7068   19.6371 C   0  0  0  0  0  0  0  0  0  0  0  0
    0.4794  -11.4482   19.9323 C   0  0  0  0  0  0  0  0  0  0  0  0
    2.8970  -10.2853   17.8533 C   0  0  0  0  0  0  0  0  0  0  0  0
    9.9066   -4.1176   17.2835 C   0  0  0  0  0  0  0  0  0  0  0  0
    9.4685   -4.9581   18.3697 C   0  0  0  0  0  0  0  0  0  0  0  0
    6.5959   -6.5143   15.2606 C   0  0  0  0  0  0  0  0  0  0  0  0
    5.7287   -7.9676   16.9587 C   0  0  0  0  0  0  0  0  0  0  0  0
    7.6332   -6.5041   17.3535 C   0  0  0  0  0  0  0  0  0  0  0  0
    3.8550  -10.6808   18.6840 N   0  0  0  0  0  0  0  0  0  0  0  0
   11.0986   -3.3658   21.2207 C   0  0  0  0  0  0  0  0  0  0  0  0
    1.1160  -11.8135   21.0849 C   0  0  0  0  0  0  0  0  0  0  0  0
    4.7306   -8.9915   17.4326 C   0  0  0  0  0  0  0  0  0  0  0  0
   -1.3063  -10.5114   21.2530 C   0  0  0  0  0  0  0  0  0  0  0  0
    3.4124   -9.2810   17.0553 N   0  0  0  0  0  0  0  0  0  0  0  0
    9.4002   -4.2777   15.9890 C   0  0  0  0  0  0  0  0  0  0  0  0
   11.2565   -2.8190   18.8531 C   0  0  0  0  0  0  0  0  0  0  0  0
    1.3860   -9.2081   16.0076 C   0  0  0  0  0  0  0  0  0  0  0  0
   -0.6049  -10.8692   22.4441 C   0  0  0  0  0  0  0  0  0  0  0  0
    7.5780   -5.9951   16.0165 C   0  0  0  0  0  0  0  0  0  0  0  0
   -0.7359  -10.8450   20.0542 C   0  0  0  0  0  0  0  0  0  0  0  0
    1.0240  -11.7443   18.6054 C   0  0  0  0  0  0  0  0  0  0  0  0
    2.6597   -8.7525   16.1422 C   0  0  0  0  0  0  0  0  0  0  0  0
   10.7697   -3.6382   19.8893 C   0  0  0  0  0  0  0  0  0  0  0  0
    1.5848  -10.7455   17.7777 C   0  0  0  0  0  0  0  0  0  0  0  0
    5.6785   -7.4130   15.7047 C   0  0  0  0  0  0  0  0  0  0  0  0
  1 19  2  0
  2 24  4  0
  2 28  4  0
  3 19  1  0
  4 26  4  0
  4 33  4  0
  5 20  4  0
  5 27  4  0
  6 18  4  0
  6 21  4  0
  7 13  4  0
  7 25  4  0
  8 16  4  0
  8 17  4  0
  9 14  4  0
  9 17  4  0
 10 14  4  0
 10 32  4  0
 11 20  4  0
 11 29  4  0
 11 30  1  0
 12 18  4  0
 12 23  4  0
 12 33  4  0
 13 14  4  0
 13 24  4  0
 15 28  4  0
 15 34  4  0
 16 21  1  0
 16 34  4  0
 17 28  4  0
 19 32  1  0
 21 23  4  0
 22 27  4  0
 22 29  4  0
 23 31  4  0
 25 32  4  0
 26 31  4  0
 30 33  1  0
M  END
$$$$

 Created by Python create_sdf_string function

 34 39  0  0  0  0  0  0  0  0999 V2000
   11.7748   -2.4134   21.4869 O   0  0  0  0  0  0  0  0  0  0  0  0
    8.4571   -5.0280   15.5489 C   0  0  0  0  0  0  0  0  0  0  0  0
   10.6373   -4.1527   22.1338 O   0  0  0  0  0  0  0  0  0  0  0  0
    0.8865  -10.1736   16.8062 N   0  0  0  0  0  0  0  0  0  0  0  0
    0.6363  -11.5685   22.3514 C   0  0  0  0  0  0  0  0  0  0  0  0
    4.9382   -9.8865   18.4135 C   0  0  0  0  0  0  0  0  0  0  0  0
   10.8301   -3.1290   17.5832 C   0  0  0  0  0  0  0  0  0  0  0  0
    6.7438   -7.4973   17.7359 C   0  0  0  0  0  0  0  0  0  0  0  0
    8.5781   -5.9390   18.1797 N   0  0  0  0  0  0  0  0  0  0  0  0
    9.9427   -4.7068   19.6371 C   0  0  0  0  0  0  0  0  0  0  0  0
    0.4794  -11.4482   19.9323 C   0  0  0  0  0  0  0  0  0  0  0  0
    2.8970  -10.2853   17.8533 C   0  0  0  0  0  0  0  0  0  0  0  0
    9.9066   -4.1176   17.2835 C   0  0  0  0  0  0  0  0  0  0  0  0
    9.4685   -4.9581   18.3697 C   0  0  0  0  0  0  0  0  0  0  0  0
    6.5959   -6.5143   15.2606 C   0  0  0  0  0  0  0  0  0  0  0  0
    5.7287   -7.9676   16.9587 C   0  0  0  0  0  0  0  0  0  0  0  0
    7.6332   -6.5041   17.3535 C   0  0  0  0  0  0  0  0  0  0  0  0
    3.8550  -10.6808   18.6840 N   0  0  0  0  0  0  0  0  0  0  0  0
   11.0986   -3.3658   21.2207 C   0  0  0  0  0  0  0  0  0  0  0  0
    1.1160  -11.8135   21.0849 C   0  0  0  0  0  0  0  0  0  0  0  0
    4.7306   -8.9915   17.4326 C   0  0  0  0  0  0  0  0  0  0  0  0
   -1.3063  -10.5114   21.2530 C   0  0  0  0  0  0  0  0  0  0  0  0
    3.4124   -9.2810   17.0553 N   0  0  0  0  0  0  0  0  0  0  0  0
    9.4002   -4.2777   15.9890 C   0  0  0  0  0  0  0  0  0  0  0  0
   11.2565   -2.8190   18.8531 C   0  0  0  0  0  0  0  0  0  0  0  0
    1.3860   -9.2081   16.0076 C   0  0  0  0  0  0  0  0  0  0  0  0
   -0.6049  -10.8692   22.4441 C   0  0  0  0  0  0  0  0  0  0  0  0
    7.5780   -5.9951   16.0165 C   0  0  0  0  0  0  0  0  0  0  0  0
   -0.7359  -10.8450   20.0542 C   0  0  0  0  0  0  0  0  0  0  0  0
    1.0240  -11.7443   18.6054 C   0  0  0  0  0  0  0  0  0  0  0  0
    2.6597   -8.7525   16.1422 C   0  0  0  0  0  0  0  0  0  0  0  0
   10.7697   -3.6382   19.8893 C   0  0  0  0  0  0  0  0  0  0  0  0
    1.5848  -10.7455   17.7777 C   0  0  0  0  0  0  0  0  0  0  0  0
    5.6785   -7.4130   15.7047 C   0  0  0  0  0  0  0  0  0  0  0  0
  1 19  2  0
  2 24  4  0
  2 28  4  0
  3 19  1  0
  4 26  4  0
  4 33  4  0
  5 20  4  0
  5 27  4  0
  6 18  4  0
  6 21  4  0
  7 13  4  0
  7 25  4  0
  8 16  4  0
  8 17  4  0
  9 14  4  0
  9 17  4  0
 10 14  4  0
 10 32  4  0
 11 20  4  0
 11 29  4  0
 11 30  1  0
 12 18  4  0
 12 23  4  0
 12 33  4  0
 13 14  4  0
 13 24  4  0
 15 28  4  0
 15 34  4  0
 16 21  1  0
 16 34  4  0
 17 28  4  0
 19 32  1  0
 21 23  4  0
 22 27  4  0
 22 29  4  0
 23 31  4  0
 25 32  4  0
 26 31  4  0
 30 33  1  0
M  END
$$$$

 Created by Python create_sdf_string function

 34 39  0  0  0  0  0  0  0  0999 V2000
   11.7748   -2.4134   21.4869 O   0  0  0  0  0  0  0  0  0  0  0  0
    8.4571   -5.0280   15.5489 C   0  0  0  0  0  0  0  0  0  0  0  0
   10.6373   -4.1527   22.1338 O   0  0  0  0  0  0  0  0  0  0  0  0
    0.8865  -10.1736   16.8062 N   0  0  0  0  0  0  0  0  0  0  0  0
    0.6363  -11.5685   22.3514 C   0  0  0  0  0  0  0  0  0  0  0  0
    4.9382   -9.8865   18.4135 C   0  0  0  0  0  0  0  0  0  0  0  0
   10.8301   -3.1290   17.5832 C   0  0  0  0  0  0  0  0  0  0  0  0
    6.7438   -7.4973   17.7359 C   0  0  0  0  0  0  0  0  0  0  0  0
    8.5781   -5.9390   18.1797 N   0  0  0  0  0  0  0  0  0  0  0  0
    9.9427   -4.7068   19.6371 C   0  0  0  0  0  0  0  0  0  0  0  0
    0.4794  -11.4482   19.9323 C   0  0  0  0  0  0  0  0  0  0  0  0
    2.8970  -10.2853   17.8533 C   0  0  0  0  0  0  0  0  0  0  0  0
    9.9066   -4.1176   17.2835 C   0  0  0  0  0  0  0  0  0  0  0  0
    9.4685   -4.9581   18.3697 C   0  0  0  0  0  0  0  0  0  0  0  0
    6.5959   -6.5143   15.2606 C   0  0  0  0  0  0  0  0  0  0  0  0
    5.7287   -7.9676   16.9587 C   0  0  0  0  0  0  0  0  0  0  0  0
    7.6332   -6.5041   17.3535 C   0  0  0  0  0  0  0  0  0  0  0  0
    3.8550  -10.6808   18.6840 N   0  0  0  0  0  0  0  0  0  0  0  0
   11.0986   -3.3658   21.2207 C   0  0  0  0  0  0  0  0  0  0  0  0
    1.1160  -11.8135   21.0849 C   0  0  0  0  0  0  0  0  0  0  0  0
    4.7306   -8.9915   17.4326 C   0  0  0  0  0  0  0  0  0  0  0  0
   -1.3063  -10.5114   21.2530 C   0  0  0  0  0  0  0  0  0  0  0  0
    3.4124   -9.2810   17.0553 N   0  0  0  0  0  0  0  0  0  0  0  0
    9.4002   -4.2777   15.9890 C   0  0  0  0  0  0  0  0  0  0  0  0
   11.2565   -2.8190   18.8531 C   0  0  0  0  0  0  0  0  0  0  0  0
    1.3860   -9.2081   16.0076 C   0  0  0  0  0  0  0  0  0  0  0  0
   -0.6049  -10.8692   22.4441 C   0  0  0  0  0  0  0  0  0  0  0  0
    7.5780   -5.9951   16.0165 C   0  0  0  0  0  0  0  0  0  0  0  0
   -0.7359  -10.8450   20.0542 C   0  0  0  0  0  0  0  0  0  0  0  0
    1.0240  -11.7443   18.6054 C   0  0  0  0  0  0  0  0  0  0  0  0
    2.6597   -8.7525   16.1422 C   0  0  0  0  0  0  0  0  0  0  0  0
   10.7697   -3.6382   19.8893 C   0  0  0  0  0  0  0  0  0  0  0  0
    1.5848  -10.7455   17.7777 C   0  0  0  0  0  0  0  0  0  0  0  0
    5.6785   -7.4130   15.7047 C   0  0  0  0  0  0  0  0  0  0  0  0
  1 19  2  0
  2 24  4  0
  2 28  4  0
  3 19  1  0
  4 26  4  0
  4 33  4  0
  5 20  4  0
  5 27  4  0
  6 18  4  0
  6 21  4  0
  7 13  4  0
  7 25  4  0
  8 16  4  0
  8 17  4  0
  9 14  4  0
  9 17  4  0
 10 14  4  0
 10 32  4  0
 11 20  4  0
 11 29  4  0
 11 30  1  0
 12 18  4  0
 12 23  4  0
 12 33  4  0
 13 14  4  0
 13 24  4  0
 15 28  4  0
 15 34  4  0
 16 21  1  0
 16 34  4  0
 17 28  4  0
 19 32  1  0
 21 23  4  0
 22 27  4  0
 22 29  4  0
 23 31  4  0
 25 32  4  0
 26 31  4  0
 30 33  1  0
M  END
$$$$

 Created by Python create_sdf_string function

 34 39  0  0  0  0  0  0  0  0999 V2000
   11.7748   -2.4134   21.4869 O   0  0  0  0  0  0  0  0  0  0  0  0
    8.4571   -5.0280   15.5489 C   0  0  0  0  0  0  0  0  0  0  0  0
   10.6373   -4.1527   22.1338 O   0  0  0  0  0  0  0  0  0  0  0  0
    0.8865  -10.1736   16.8062 N   0  0  0  0  0  0  0  0  0  0  0  0
    0.6363  -11.5685   22.3514 C   0  0  0  0  0  0  0  0  0  0  0  0
    4.9382   -9.8865   18.4135 C   0  0  0  0  0  0  0  0  0  0  0  0
   10.8301   -3.1290   17.5832 C   0  0  0  0  0  0  0  0  0  0  0  0
    6.7438   -7.4973   17.7359 C   0  0  0  0  0  0  0  0  0  0  0  0
    8.5781   -5.9390   18.1797 N   0  0  0  0  0  0  0  0  0  0  0  0
    9.9427   -4.7068   19.6371 C   0  0  0  0  0  0  0  0  0  0  0  0
    0.4794  -11.4482   19.9323 C   0  0  0  0  0  0  0  0  0  0  0  0
    2.8970  -10.2853   17.8533 C   0  0  0  0  0  0  0  0  0  0  0  0
    9.9066   -4.1176   17.2835 C   0  0  0  0  0  0  0  0  0  0  0  0
    9.4685   -4.9581   18.3697 C   0  0  0  0  0  0  0  0  0  0  0  0
    6.5959   -6.5143   15.2606 C   0  0  0  0  0  0  0  0  0  0  0  0
    5.7287   -7.9676   16.9587 C   0  0  0  0  0  0  0  0  0  0  0  0
    7.6332   -6.5041   17.3535 C   0  0  0  0  0  0  0  0  0  0  0  0
    3.8550  -10.6808   18.6840 N   0  0  0  0  0  0  0  0  0  0  0  0
   11.0986   -3.3658   21.2207 C   0  0  0  0  0  0  0  0  0  0  0  0
    1.1160  -11.8135   21.0849 C   0  0  0  0  0  0  0  0  0  0  0  0
    4.7306   -8.9915   17.4326 C   0  0  0  0  0  0  0  0  0  0  0  0
   -1.3063  -10.5114   21.2530 C   0  0  0  0  0  0  0  0  0  0  0  0
    3.4124   -9.2810   17.0553 N   0  0  0  0  0  0  0  0  0  0  0  0
    9.4002   -4.2777   15.9890 C   0  0  0  0  0  0  0  0  0  0  0  0
   11.2565   -2.8190   18.8531 C   0  0  0  0  0  0  0  0  0  0  0  0
    1.3860   -9.2081   16.0076 C   0  0  0  0  0  0  0  0  0  0  0  0
   -0.6049  -10.8692   22.4441 C   0  0  0  0  0  0  0  0  0  0  0  0
    7.5780   -5.9951   16.0165 C   0  0  0  0  0  0  0  0  0  0  0  0
   -0.7359  -10.8450   20.0542 C   0  0  0  0  0  0  0  0  0  0  0  0
    1.0240  -11.7443   18.6054 C   0  0  0  0  0  0  0  0  0  0  0  0
    2.6597   -8.7525   16.1422 C   0  0  0  0  0  0  0  0  0  0  0  0
   10.7697   -3.6382   19.8893 C   0  0  0  0  0  0  0  0  0  0  0  0
    1.5848  -10.7455   17.7777 C   0  0  0  0  0  0  0  0  0  0  0  0
    5.6785   -7.4130   15.7047 C   0  0  0  0  0  0  0  0  0  0  0  0
  1 19  2  0
  2 24  4  0
  2 28  4  0
  3 19  1  0
  4 26  4  0
  4 33  4  0
  5 20  4  0
  5 27  4  0
  6 18  4  0
  6 21  4  0
  7 13  4  0
  7 25  4  0
  8 16  4  0
  8 17  4  0
  9 14  4  0
  9 17  4  0
 10 14  4  0
 10 32  4  0
 11 20  4  0
 11 29  4  0
 11 30  1  0
 12 18  4  0
 12 23  4  0
 12 33  4  0
 13 14  4  0
 13 24  4  0
 15 28  4  0
 15 34  4  0
 16 21  1  0
 16 34  4  0
 17 28  4  0
 19 32  1  0
 21 23  4  0
 22 27  4  0
 22 29  4  0
 23 31  4  0
 25 32  4  0
 26 31  4  0
 30 33  1  0
M  END
$$$$

 Created by Python create_sdf_string function

 34 39  0  0  0  0  0  0  0  0999 V2000
   11.7748   -2.4134   21.4869 O   0  0  0  0  0  0  0  0  0  0  0  0
    8.4571   -5.0280   15.5489 C   0  0  0  0  0  0  0  0  0  0  0  0
   10.6373   -4.1527   22.1338 O   0  0  0  0  0  0  0  0  0  0  0  0
    0.8865  -10.1736   16.8062 N   0  0  0  0  0  0  0  0  0  0  0  0
    0.6363  -11.5685   22.3514 C   0  0  0  0  0  0  0  0  0  0  0  0
    4.9382   -9.8865   18.4135 C   0  0  0  0  0  0  0  0  0  0  0  0
   10.8301   -3.1290   17.5832 C   0  0  0  0  0  0  0  0  0  0  0  0
    6.7438   -7.4973   17.7359 C   0  0  0  0  0  0  0  0  0  0  0  0
    8.5781   -5.9390   18.1797 N   0  0  0  0  0  0  0  0  0  0  0  0
    9.9427   -4.7068   19.6371 C   0  0  0  0  0  0  0  0  0  0  0  0
    0.4794  -11.4482   19.9323 C   0  0  0  0  0  0  0  0  0  0  0  0
    2.8970  -10.2853   17.8533 C   0  0  0  0  0  0  0  0  0  0  0  0
    9.9066   -4.1176   17.2835 C   0  0  0  0  0  0  0  0  0  0  0  0
    9.4685   -4.9581   18.3697 C   0  0  0  0  0  0  0  0  0  0  0  0
    6.5959   -6.5143   15.2606 C   0  0  0  0  0  0  0  0  0  0  0  0
    5.7287   -7.9676   16.9587 C   0  0  0  0  0  0  0  0  0  0  0  0
    7.6332   -6.5041   17.3535 C   0  0  0  0  0  0  0  0  0  0  0  0
    3.8550  -10.6808   18.6840 N   0  0  0  0  0  0  0  0  0  0  0  0
   11.0986   -3.3658   21.2207 C   0  0  0  0  0  0  0  0  0  0  0  0
    1.1160  -11.8135   21.0849 C   0  0  0  0  0  0  0  0  0  0  0  0
    4.7306   -8.9915   17.4326 C   0  0  0  0  0  0  0  0  0  0  0  0
   -1.3063  -10.5114   21.2530 C   0  0  0  0  0  0  0  0  0  0  0  0
    3.4124   -9.2810   17.0553 N   0  0  0  0  0  0  0  0  0  0  0  0
    9.4002   -4.2777   15.9890 C   0  0  0  0  0  0  0  0  0  0  0  0
   11.2565   -2.8190   18.8531 C   0  0  0  0  0  0  0  0  0  0  0  0
    1.3860   -9.2081   16.0076 C   0  0  0  0  0  0  0  0  0  0  0  0
   -0.6049  -10.8692   22.4441 C   0  0  0  0  0  0  0  0  0  0  0  0
    7.5780   -5.9951   16.0165 C   0  0  0  0  0  0  0  0  0  0  0  0
   -0.7359  -10.8450   20.0542 C   0  0  0  0  0  0  0  0  0  0  0  0
    1.0240  -11.7443   18.6054 C   0  0  0  0  0  0  0  0  0  0  0  0
    2.6597   -8.7525   16.1422 C   0  0  0  0  0  0  0  0  0  0  0  0
   10.7697   -3.6382   19.8893 C   0  0  0  0  0  0  0  0  0  0  0  0
    1.5848  -10.7455   17.7777 C   0  0  0  0  0  0  0  0  0  0  0  0
    5.6785   -7.4130   15.7047 C   0  0  0  0  0  0  0  0  0  0  0  0
  1 19  2  0
  2 24  4  0
  2 28  4  0
  3 19  1  0
  4 26  4  0
  4 33  4  0
  5 20  4  0
  5 27  4  0
  6 18  4  0
  6 21  4  0
  7 13  4  0
  7 25  4  0
  8 16  4  0
  8 17  4  0
  9 14  4  0
  9 17  4  0
 10 14  4  0
 10 32  4  0
 11 20  4  0
 11 29  4  0
 11 30  1  0
 12 18  4  0
 12 23  4  0
 12 33  4  0
 13 14  4  0
 13 24  4  0
 15 28  4  0
 15 34  4  0
 16 21  1  0
 16 34  4  0
 17 28  4  0
 19 32  1  0
 21 23  4  0
 22 27  4  0
 22 29  4  0
 23 31  4  0
 25 32  4  0
 26 31  4  0
 30 33  1  0
M  END
$$$$

 Created by Python create_sdf_string function

 34 39  0  0  0  0  0  0  0  0999 V2000
   11.7748   -2.4134   21.4869 O   0  0  0  0  0  0  0  0  0  0  0  0
    8.4571   -5.0280   15.5489 C   0  0  0  0  0  0  0  0  0  0  0  0
   10.6373   -4.1527   22.1338 O   0  0  0  0  0  0  0  0  0  0  0  0
    0.8865  -10.1736   16.8062 N   0  0  0  0  0  0  0  0  0  0  0  0
    0.6363  -11.5685   22.3514 C   0  0  0  0  0  0  0  0  0  0  0  0
    4.9382   -9.8865   18.4135 C   0  0  0  0  0  0  0  0  0  0  0  0
   10.8301   -3.1290   17.5832 C   0  0  0  0  0  0  0  0  0  0  0  0
    6.7438   -7.4973   17.7359 C   0  0  0  0  0  0  0  0  0  0  0  0
    8.5781   -5.9390   18.1797 N   0  0  0  0  0  0  0  0  0  0  0  0
    9.9427   -4.7068   19.6371 C   0  0  0  0  0  0  0  0  0  0  0  0
    0.4794  -11.4482   19.9323 C   0  0  0  0  0  0  0  0  0  0  0  0
    2.8970  -10.2853   17.8533 C   0  0  0  0  0  0  0  0  0  0  0  0
    9.9066   -4.1176   17.2835 C   0  0  0  0  0  0  0  0  0  0  0  0
    9.4685   -4.9581   18.3697 C   0  0  0  0  0  0  0  0  0  0  0  0
    6.5959   -6.5143   15.2606 C   0  0  0  0  0  0  0  0  0  0  0  0
    5.7287   -7.9676   16.9587 C   0  0  0  0  0  0  0  0  0  0  0  0
    7.6332   -6.5041   17.3535 C   0  0  0  0  0  0  0  0  0  0  0  0
    3.8550  -10.6808   18.6840 N   0  0  0  0  0  0  0  0  0  0  0  0
   11.0986   -3.3658   21.2207 C   0  0  0  0  0  0  0  0  0  0  0  0
    1.1160  -11.8135   21.0849 C   0  0  0  0  0  0  0  0  0  0  0  0
    4.7306   -8.9915   17.4326 C   0  0  0  0  0  0  0  0  0  0  0  0
   -1.3063  -10.5114   21.2530 C   0  0  0  0  0  0  0  0  0  0  0  0
    3.4124   -9.2810   17.0553 N   0  0  0  0  0  0  0  0  0  0  0  0
    9.4002   -4.2777   15.9890 C   0  0  0  0  0  0  0  0  0  0  0  0
   11.2565   -2.8190   18.8531 C   0  0  0  0  0  0  0  0  0  0  0  0
    1.3860   -9.2081   16.0076 C   0  0  0  0  0  0  0  0  0  0  0  0
   -0.6049  -10.8692   22.4441 C   0  0  0  0  0  0  0  0  0  0  0  0
    7.5780   -5.9951   16.0165 C   0  0  0  0  0  0  0  0  0  0  0  0
   -0.7359  -10.8450   20.0542 C   0  0  0  0  0  0  0  0  0  0  0  0
    1.0240  -11.7443   18.6054 C   0  0  0  0  0  0  0  0  0  0  0  0
    2.6597   -8.7525   16.1422 C   0  0  0  0  0  0  0  0  0  0  0  0
   10.7697   -3.6382   19.8893 C   0  0  0  0  0  0  0  0  0  0  0  0
    1.5848  -10.7455   17.7777 C   0  0  0  0  0  0  0  0  0  0  0  0
    5.6785   -7.4130   15.7047 C   0  0  0  0  0  0  0  0  0  0  0  0
  1 19  2  0
  2 24  4  0
  2 28  4  0
  3 19  1  0
  4 26  4  0
  4 33  4  0
  5 20  4  0
  5 27  4  0
  6 18  4  0
  6 21  4  0
  7 13  4  0
  7 25  4  0
  8 16  4  0
  8 17  4  0
  9 14  4  0
  9 17  4  0
 10 14  4  0
 10 32  4  0
 11 20  4  0
 11 29  4  0
 11 30  1  0
 12 18  4  0
 12 23  4  0
 12 33  4  0
 13 14  4  0
 13 24  4  0
 15 28  4  0
 15 34  4  0
 16 21  1  0
 16 34  4  0
 17 28  4  0
 19 32  1  0
 21 23  4  0
 22 27  4  0
 22 29  4  0
 23 31  4  0
 25 32  4  0
 26 31  4  0
 30 33  1  0
M  END
$$$$

 Created by Python create_sdf_string function

 34 39  0  0  0  0  0  0  0  0999 V2000
   11.7748   -2.4134   21.4869 O   0  0  0  0  0  0  0  0  0  0  0  0
    8.4571   -5.0280   15.5489 C   0  0  0  0  0  0  0  0  0  0  0  0
   10.6373   -4.1527   22.1338 O   0  0  0  0  0  0  0  0  0  0  0  0
    0.8865  -10.1736   16.8062 N   0  0  0  0  0  0  0  0  0  0  0  0
    0.6363  -11.5685   22.3514 C   0  0  0  0  0  0  0  0  0  0  0  0
    4.9382   -9.8865   18.4135 C   0  0  0  0  0  0  0  0  0  0  0  0
   10.8301   -3.1290   17.5832 C   0  0  0  0  0  0  0  0  0  0  0  0
    6.7438   -7.4973   17.7359 C   0  0  0  0  0  0  0  0  0  0  0  0
    8.5781   -5.9390   18.1797 N   0  0  0  0  0  0  0  0  0  0  0  0
    9.9427   -4.7068   19.6371 C   0  0  0  0  0  0  0  0  0  0  0  0
    0.4794  -11.4482   19.9323 C   0  0  0  0  0  0  0  0  0  0  0  0
    2.8970  -10.2853   17.8533 C   0  0  0  0  0  0  0  0  0  0  0  0
    9.9066   -4.1176   17.2835 C   0  0  0  0  0  0  0  0  0  0  0  0
    9.4685   -4.9581   18.3697 C   0  0  0  0  0  0  0  0  0  0  0  0
    6.5959   -6.5143   15.2606 C   0  0  0  0  0  0  0  0  0  0  0  0
    5.7287   -7.9676   16.9587 C   0  0  0  0  0  0  0  0  0  0  0  0
    7.6332   -6.5041   17.3535 C   0  0  0  0  0  0  0  0  0  0  0  0
    3.8550  -10.6808   18.6840 N   0  0  0  0  0  0  0  0  0  0  0  0
   11.0986   -3.3658   21.2207 C   0  0  0  0  0  0  0  0  0  0  0  0
    1.1160  -11.8135   21.0849 C   0  0  0  0  0  0  0  0  0  0  0  0
    4.7306   -8.9915   17.4326 C   0  0  0  0  0  0  0  0  0  0  0  0
   -1.3063  -10.5114   21.2530 C   0  0  0  0  0  0  0  0  0  0  0  0
    3.4124   -9.2810   17.0553 N   0  0  0  0  0  0  0  0  0  0  0  0
    9.4002   -4.2777   15.9890 C   0  0  0  0  0  0  0  0  0  0  0  0
   11.2565   -2.8190   18.8531 C   0  0  0  0  0  0  0  0  0  0  0  0
    1.3860   -9.2081   16.0076 C   0  0  0  0  0  0  0  0  0  0  0  0
   -0.6049  -10.8692   22.4441 C   0  0  0  0  0  0  0  0  0  0  0  0
    7.5780   -5.9951   16.0165 C   0  0  0  0  0  0  0  0  0  0  0  0
   -0.7359  -10.8450   20.0542 C   0  0  0  0  0  0  0  0  0  0  0  0
    1.0240  -11.7443   18.6054 C   0  0  0  0  0  0  0  0  0  0  0  0
    2.6597   -8.7525   16.1422 C   0  0  0  0  0  0  0  0  0  0  0  0
   10.7697   -3.6382   19.8893 C   0  0  0  0  0  0  0  0  0  0  0  0
    1.5848  -10.7455   17.7777 C   0  0  0  0  0  0  0  0  0  0  0  0
    5.6785   -7.4130   15.7047 C   0  0  0  0  0  0  0  0  0  0  0  0
  1 19  2  0
  2 24  4  0
  2 28  4  0
  3 19  1  0
  4 26  4  0
  4 33  4  0
  5 20  4  0
  5 27  4  0
  6 18  4  0
  6 21  4  0
  7 13  4  0
  7 25  4  0
  8 16  4  0
  8 17  4  0
  9 14  4  0
  9 17  4  0
 10 14  4  0
 10 32  4  0
 11 20  4  0
 11 29  4  0
 11 30  1  0
 12 18  4  0
 12 23  4  0
 12 33  4  0
 13 14  4  0
 13 24  4  0
 15 28  4  0
 15 34  4  0
 16 21  1  0
 16 34  4  0
 17 28  4  0
 19 32  1  0
 21 23  4  0
 22 27  4  0
 22 29  4  0
 23 31  4  0
 25 32  4  0
 26 31  4  0
 30 33  1  0
M  END
$$$$

 Created by Python create_sdf_string function

 34 39  0  0  0  0  0  0  0  0999 V2000
   11.7748   -2.4134   21.4869 O   0  0  0  0  0  0  0  0  0  0  0  0
    8.4571   -5.0280   15.5489 C   0  0  0  0  0  0  0  0  0  0  0  0
   10.6373   -4.1527   22.1338 O   0  0  0  0  0  0  0  0  0  0  0  0
    0.8865  -10.1736   16.8062 N   0  0  0  0  0  0  0  0  0  0  0  0
    0.6363  -11.5685   22.3514 C   0  0  0  0  0  0  0  0  0  0  0  0
    4.9382   -9.8865   18.4135 C   0  0  0  0  0  0  0  0  0  0  0  0
   10.8301   -3.1290   17.5832 C   0  0  0  0  0  0  0  0  0  0  0  0
    6.7438   -7.4973   17.7359 C   0  0  0  0  0  0  0  0  0  0  0  0
    8.5781   -5.9390   18.1797 N   0  0  0  0  0  0  0  0  0  0  0  0
    9.9427   -4.7068   19.6371 C   0  0  0  0  0  0  0  0  0  0  0  0
    0.4794  -11.4482   19.9323 C   0  0  0  0  0  0  0  0  0  0  0  0
    2.8970  -10.2853   17.8533 C   0  0  0  0  0  0  0  0  0  0  0  0
    9.9066   -4.1176   17.2835 C   0  0  0  0  0  0  0  0  0  0  0  0
    9.4685   -4.9581   18.3697 C   0  0  0  0  0  0  0  0  0  0  0  0
    6.5959   -6.5143   15.2606 C   0  0  0  0  0  0  0  0  0  0  0  0
    5.7287   -7.9676   16.9587 C   0  0  0  0  0  0  0  0  0  0  0  0
    7.6332   -6.5041   17.3535 C   0  0  0  0  0  0  0  0  0  0  0  0
    3.8550  -10.6808   18.6840 N   0  0  0  0  0  0  0  0  0  0  0  0
   11.0986   -3.3658   21.2207 C   0  0  0  0  0  0  0  0  0  0  0  0
    1.1160  -11.8135   21.0849 C   0  0  0  0  0  0  0  0  0  0  0  0
    4.7306   -8.9915   17.4326 C   0  0  0  0  0  0  0  0  0  0  0  0
   -1.3063  -10.5114   21.2530 C   0  0  0  0  0  0  0  0  0  0  0  0
    3.4124   -9.2810   17.0553 N   0  0  0  0  0  0  0  0  0  0  0  0
    9.4002   -4.2777   15.9890 C   0  0  0  0  0  0  0  0  0  0  0  0
   11.2565   -2.8190   18.8531 C   0  0  0  0  0  0  0  0  0  0  0  0
    1.3860   -9.2081   16.0076 C   0  0  0  0  0  0  0  0  0  0  0  0
   -0.6049  -10.8692   22.4441 C   0  0  0  0  0  0  0  0  0  0  0  0
    7.5780   -5.9951   16.0165 C   0  0  0  0  0  0  0  0  0  0  0  0
   -0.7359  -10.8450   20.0542 C   0  0  0  0  0  0  0  0  0  0  0  0
    1.0240  -11.7443   18.6054 C   0  0  0  0  0  0  0  0  0  0  0  0
    2.6597   -8.7525   16.1422 C   0  0  0  0  0  0  0  0  0  0  0  0
   10.7697   -3.6382   19.8893 C   0  0  0  0  0  0  0  0  0  0  0  0
    1.5848  -10.7455   17.7777 C   0  0  0  0  0  0  0  0  0  0  0  0
    5.6785   -7.4130   15.7047 C   0  0  0  0  0  0  0  0  0  0  0  0
  1 19  2  0
  2 24  4  0
  2 28  4  0
  3 19  1  0
  4 26  4  0
  4 33  4  0
  5 20  4  0
  5 27  4  0
  6 18  4  0
  6 21  4  0
  7 13  4  0
  7 25  4  0
  8 16  4  0
  8 17  4  0
  9 14  4  0
  9 17  4  0
 10 14  4  0
 10 32  4  0
 11 20  4  0
 11 29  4  0
 11 30  1  0
 12 18  4  0
 12 23  4  0
 12 33  4  0
 13 14  4  0
 13 24  4  0
 15 28  4  0
 15 34  4  0
 16 21  1  0
 16 34  4  0
 17 28  4  0
 19 32  1  0
 21 23  4  0
 22 27  4  0
 22 29  4  0
 23 31  4  0
 25 32  4  0
 26 31  4  0
 30 33  1  0
M  END
$$$$

 Created by Python create_sdf_string function

 34 39  0  0  0  0  0  0  0  0999 V2000
   11.7748   -2.4134   21.4869 O   0  0  0  0  0  0  0  0  0  0  0  0
    8.4571   -5.0280   15.5489 C   0  0  0  0  0  0  0  0  0  0  0  0
   10.6373   -4.1527   22.1338 O   0  0  0  0  0  0  0  0  0  0  0  0
    0.8865  -10.1736   16.8062 N   0  0  0  0  0  0  0  0  0  0  0  0
    0.6363  -11.5685   22.3514 C   0  0  0  0  0  0  0  0  0  0  0  0
    4.9382   -9.8865   18.4135 C   0  0  0  0  0  0  0  0  0  0  0  0
   10.8301   -3.1290   17.5832 C   0  0  0  0  0  0  0  0  0  0  0  0
    6.7438   -7.4973   17.7359 C   0  0  0  0  0  0  0  0  0  0  0  0
    8.5781   -5.9390   18.1797 N   0  0  0  0  0  0  0  0  0  0  0  0
    9.9427   -4.7068   19.6371 C   0  0  0  0  0  0  0  0  0  0  0  0
    0.4794  -11.4482   19.9323 C   0  0  0  0  0  0  0  0  0  0  0  0
    2.8970  -10.2853   17.8533 C   0  0  0  0  0  0  0  0  0  0  0  0
    9.9066   -4.1176   17.2835 C   0  0  0  0  0  0  0  0  0  0  0  0
    9.4685   -4.9581   18.3697 C   0  0  0  0  0  0  0  0  0  0  0  0
    6.5959   -6.5143   15.2606 C   0  0  0  0  0  0  0  0  0  0  0  0
    5.7287   -7.9676   16.9587 C   0  0  0  0  0  0  0  0  0  0  0  0
    7.6332   -6.5041   17.3535 C   0  0  0  0  0  0  0  0  0  0  0  0
    3.8550  -10.6808   18.6840 N   0  0  0  0  0  0  0  0  0  0  0  0
   11.0986   -3.3658   21.2207 C   0  0  0  0  0  0  0  0  0  0  0  0
    1.1160  -11.8135   21.0849 C   0  0  0  0  0  0  0  0  0  0  0  0
    4.7306   -8.9915   17.4326 C   0  0  0  0  0  0  0  0  0  0  0  0
   -1.3063  -10.5114   21.2530 C   0  0  0  0  0  0  0  0  0  0  0  0
    3.4124   -9.2810   17.0553 N   0  0  0  0  0  0  0  0  0  0  0  0
    9.4002   -4.2777   15.9890 C   0  0  0  0  0  0  0  0  0  0  0  0
   11.2565   -2.8190   18.8531 C   0  0  0  0  0  0  0  0  0  0  0  0
    1.3860   -9.2081   16.0076 C   0  0  0  0  0  0  0  0  0  0  0  0
   -0.6049  -10.8692   22.4441 C   0  0  0  0  0  0  0  0  0  0  0  0
    7.5780   -5.9951   16.0165 C   0  0  0  0  0  0  0  0  0  0  0  0
   -0.7359  -10.8450   20.0542 C   0  0  0  0  0  0  0  0  0  0  0  0
    1.0240  -11.7443   18.6054 C   0  0  0  0  0  0  0  0  0  0  0  0
    2.6597   -8.7525   16.1422 C   0  0  0  0  0  0  0  0  0  0  0  0
   10.7697   -3.6382   19.8893 C   0  0  0  0  0  0  0  0  0  0  0  0
    1.5848  -10.7455   17.7777 C   0  0  0  0  0  0  0  0  0  0  0  0
    5.6785   -7.4130   15.7047 C   0  0  0  0  0  0  0  0  0  0  0  0
  1 19  2  0
  2 24  4  0
  2 28  4  0
  3 19  1  0
  4 26  4  0
  4 33  4  0
  5 20  4  0
  5 27  4  0
  6 18  4  0
  6 21  4  0
  7 13  4  0
  7 25  4  0
  8 16  4  0
  8 17  4  0
  9 14  4  0
  9 17  4  0
 10 14  4  0
 10 32  4  0
 11 20  4  0
 11 29  4  0
 11 30  1  0
 12 18  4  0
 12 23  4  0
 12 33  4  0
 13 14  4  0
 13 24  4  0
 15 28  4  0
 15 34  4  0
 16 21  1  0
 16 34  4  0
 17 28  4  0
 19 32  1  0
 21 23  4  0
 22 27  4  0
 22 29  4  0
 23 31  4  0
 25 32  4  0
 26 31  4  0
 30 33  1  0
M  END
$$$$

 Created by Python create_sdf_string function

 34 39  0  0  0  0  0  0  0  0999 V2000
   11.7748   -2.4134   21.4869 O   0  0  0  0  0  0  0  0  0  0  0  0
    8.4571   -5.0280   15.5489 C   0  0  0  0  0  0  0  0  0  0  0  0
   10.6373   -4.1527   22.1338 O   0  0  0  0  0  0  0  0  0  0  0  0
    0.8865  -10.1736   16.8062 N   0  0  0  0  0  0  0  0  0  0  0  0
    0.6363  -11.5685   22.3514 C   0  0  0  0  0  0  0  0  0  0  0  0
    4.9382   -9.8865   18.4135 C   0  0  0  0  0  0  0  0  0  0  0  0
   10.8301   -3.1290   17.5832 C   0  0  0  0  0  0  0  0  0  0  0  0
    6.7438   -7.4973   17.7359 C   0  0  0  0  0  0  0  0  0  0  0  0
    8.5781   -5.9390   18.1797 N   0  0  0  0  0  0  0  0  0  0  0  0
    9.9427   -4.7068   19.6371 C   0  0  0  0  0  0  0  0  0  0  0  0
    0.4794  -11.4482   19.9323 C   0  0  0  0  0  0  0  0  0  0  0  0
    2.8970  -10.2853   17.8533 C   0  0  0  0  0  0  0  0  0  0  0  0
    9.9066   -4.1176   17.2835 C   0  0  0  0  0  0  0  0  0  0  0  0
    9.4685   -4.9581   18.3697 C   0  0  0  0  0  0  0  0  0  0  0  0
    6.5959   -6.5143   15.2606 C   0  0  0  0  0  0  0  0  0  0  0  0
    5.7287   -7.9676   16.9587 C   0  0  0  0  0  0  0  0  0  0  0  0
    7.6332   -6.5041   17.3535 C   0  0  0  0  0  0  0  0  0  0  0  0
    3.8550  -10.6808   18.6840 N   0  0  0  0  0  0  0  0  0  0  0  0
   11.0986   -3.3658   21.2207 C   0  0  0  0  0  0  0  0  0  0  0  0
    1.1160  -11.8135   21.0849 C   0  0  0  0  0  0  0  0  0  0  0  0
    4.7306   -8.9915   17.4326 C   0  0  0  0  0  0  0  0  0  0  0  0
   -1.3063  -10.5114   21.2530 C   0  0  0  0  0  0  0  0  0  0  0  0
    3.4124   -9.2810   17.0553 N   0  0  0  0  0  0  0  0  0  0  0  0
    9.4002   -4.2777   15.9890 C   0  0  0  0  0  0  0  0  0  0  0  0
   11.2565   -2.8190   18.8531 C   0  0  0  0  0  0  0  0  0  0  0  0
    1.3860   -9.2081   16.0076 C   0  0  0  0  0  0  0  0  0  0  0  0
   -0.6049  -10.8692   22.4441 C   0  0  0  0  0  0  0  0  0  0  0  0
    7.5780   -5.9951   16.0165 C   0  0  0  0  0  0  0  0  0  0  0  0
   -0.7359  -10.8450   20.0542 C   0  0  0  0  0  0  0  0  0  0  0  0
    1.0240  -11.7443   18.6054 C   0  0  0  0  0  0  0  0  0  0  0  0
    2.6597   -8.7525   16.1422 C   0  0  0  0  0  0  0  0  0  0  0  0
   10.7697   -3.6382   19.8893 C   0  0  0  0  0  0  0  0  0  0  0  0
    1.5848  -10.7455   17.7777 C   0  0  0  0  0  0  0  0  0  0  0  0
    5.6785   -7.4130   15.7047 C   0  0  0  0  0  0  0  0  0  0  0  0
  1 19  2  0
  2 24  4  0
  2 28  4  0
  3 19  1  0
  4 26  4  0
  4 33  4  0
  5 20  4  0
  5 27  4  0
  6 18  4  0
  6 21  4  0
  7 13  4  0
  7 25  4  0
  8 16  4  0
  8 17  4  0
  9 14  4  0
  9 17  4  0
 10 14  4  0
 10 32  4  0
 11 20  4  0
 11 29  4  0
 11 30  1  0
 12 18  4  0
 12 23  4  0
 12 33  4  0
 13 14  4  0
 13 24  4  0
 15 28  4  0
 15 34  4  0
 16 21  1  0
 16 34  4  0
 17 28  4  0
 19 32  1  0
 21 23  4  0
 22 27  4  0
 22 29  4  0
 23 31  4  0
 25 32  4  0
 26 31  4  0
 30 33  1  0
M  END
$$$$

 Created by Python create_sdf_string function

 34 39  0  0  0  0  0  0  0  0999 V2000
   11.7748   -2.4134   21.4869 O   0  0  0  0  0  0  0  0  0  0  0  0
    8.4571   -5.0280   15.5489 C   0  0  0  0  0  0  0  0  0  0  0  0
   10.6373   -4.1527   22.1338 O   0  0  0  0  0  0  0  0  0  0  0  0
    0.8865  -10.1736   16.8062 N   0  0  0  0  0  0  0  0  0  0  0  0
    0.6363  -11.5685   22.3514 C   0  0  0  0  0  0  0  0  0  0  0  0
    4.9382   -9.8865   18.4135 C   0  0  0  0  0  0  0  0  0  0  0  0
   10.8301   -3.1290   17.5832 C   0  0  0  0  0  0  0  0  0  0  0  0
    6.7438   -7.4973   17.7359 C   0  0  0  0  0  0  0  0  0  0  0  0
    8.5781   -5.9390   18.1797 N   0  0  0  0  0  0  0  0  0  0  0  0
    9.9427   -4.7068   19.6371 C   0  0  0  0  0  0  0  0  0  0  0  0
    0.4794  -11.4482   19.9323 C   0  0  0  0  0  0  0  0  0  0  0  0
    2.8970  -10.2853   17.8533 C   0  0  0  0  0  0  0  0  0  0  0  0
    9.9066   -4.1176   17.2835 C   0  0  0  0  0  0  0  0  0  0  0  0
    9.4685   -4.9581   18.3697 C   0  0  0  0  0  0  0  0  0  0  0  0
    6.5959   -6.5143   15.2606 C   0  0  0  0  0  0  0  0  0  0  0  0
    5.7287   -7.9676   16.9587 C   0  0  0  0  0  0  0  0  0  0  0  0
    7.6332   -6.5041   17.3535 C   0  0  0  0  0  0  0  0  0  0  0  0
    3.8550  -10.6808   18.6840 N   0  0  0  0  0  0  0  0  0  0  0  0
   11.0986   -3.3658   21.2207 C   0  0  0  0  0  0  0  0  0  0  0  0
    1.1160  -11.8135   21.0849 C   0  0  0  0  0  0  0  0  0  0  0  0
    4.7306   -8.9915   17.4326 C   0  0  0  0  0  0  0  0  0  0  0  0
   -1.3063  -10.5114   21.2530 C   0  0  0  0  0  0  0  0  0  0  0  0
    3.4124   -9.2810   17.0553 N   0  0  0  0  0  0  0  0  0  0  0  0
    9.4002   -4.2777   15.9890 C   0  0  0  0  0  0  0  0  0  0  0  0
   11.2565   -2.8190   18.8531 C   0  0  0  0  0  0  0  0  0  0  0  0
    1.3860   -9.2081   16.0076 C   0  0  0  0  0  0  0  0  0  0  0  0
   -0.6049  -10.8692   22.4441 C   0  0  0  0  0  0  0  0  0  0  0  0
    7.5780   -5.9951   16.0165 C   0  0  0  0  0  0  0  0  0  0  0  0
   -0.7359  -10.8450   20.0542 C   0  0  0  0  0  0  0  0  0  0  0  0
    1.0240  -11.7443   18.6054 C   0  0  0  0  0  0  0  0  0  0  0  0
    2.6597   -8.7525   16.1422 C   0  0  0  0  0  0  0  0  0  0  0  0
   10.7697   -3.6382   19.8893 C   0  0  0  0  0  0  0  0  0  0  0  0
    1.5848  -10.7455   17.7777 C   0  0  0  0  0  0  0  0  0  0  0  0
    5.6785   -7.4130   15.7047 C   0  0  0  0  0  0  0  0  0  0  0  0
  1 19  2  0
  2 24  4  0
  2 28  4  0
  3 19  1  0
  4 26  4  0
  4 33  4  0
  5 20  4  0
  5 27  4  0
  6 18  4  0
  6 21  4  0
  7 13  4  0
  7 25  4  0
  8 16  4  0
  8 17  4  0
  9 14  4  0
  9 17  4  0
 10 14  4  0
 10 32  4  0
 11 20  4  0
 11 29  4  0
 11 30  1  0
 12 18  4  0
 12 23  4  0
 12 33  4  0
 13 14  4  0
 13 24  4  0
 15 28  4  0
 15 34  4  0
 16 21  1  0
 16 34  4  0
 17 28  4  0
 19 32  1  0
 21 23  4  0
 22 27  4  0
 22 29  4  0
 23 31  4  0
 25 32  4  0
 26 31  4  0
 30 33  1  0
M  END
$$$$

 Created by Python create_sdf_string function

 34 39  0  0  0  0  0  0  0  0999 V2000
   11.7748   -2.4134   21.4869 O   0  0  0  0  0  0  0  0  0  0  0  0
    8.4571   -5.0280   15.5489 C   0  0  0  0  0  0  0  0  0  0  0  0
   10.6373   -4.1527   22.1338 O   0  0  0  0  0  0  0  0  0  0  0  0
    0.8865  -10.1736   16.8062 N   0  0  0  0  0  0  0  0  0  0  0  0
    0.6363  -11.5685   22.3514 C   0  0  0  0  0  0  0  0  0  0  0  0
    4.9382   -9.8865   18.4135 C   0  0  0  0  0  0  0  0  0  0  0  0
   10.8301   -3.1290   17.5832 C   0  0  0  0  0  0  0  0  0  0  0  0
    6.7438   -7.4973   17.7359 C   0  0  0  0  0  0  0  0  0  0  0  0
    8.5781   -5.9390   18.1797 N   0  0  0  0  0  0  0  0  0  0  0  0
    9.9427   -4.7068   19.6371 C   0  0  0  0  0  0  0  0  0  0  0  0
    0.4794  -11.4482   19.9323 C   0  0  0  0  0  0  0  0  0  0  0  0
    2.8970  -10.2853   17.8533 C   0  0  0  0  0  0  0  0  0  0  0  0
    9.9066   -4.1176   17.2835 C   0  0  0  0  0  0  0  0  0  0  0  0
    9.4685   -4.9581   18.3697 C   0  0  0  0  0  0  0  0  0  0  0  0
    6.5959   -6.5143   15.2606 C   0  0  0  0  0  0  0  0  0  0  0  0
    5.7287   -7.9676   16.9587 C   0  0  0  0  0  0  0  0  0  0  0  0
    7.6332   -6.5041   17.3535 C   0  0  0  0  0  0  0  0  0  0  0  0
    3.8550  -10.6808   18.6840 N   0  0  0  0  0  0  0  0  0  0  0  0
   11.0986   -3.3658   21.2207 C   0  0  0  0  0  0  0  0  0  0  0  0
    1.1160  -11.8135   21.0849 C   0  0  0  0  0  0  0  0  0  0  0  0
    4.7306   -8.9915   17.4326 C   0  0  0  0  0  0  0  0  0  0  0  0
   -1.3063  -10.5114   21.2530 C   0  0  0  0  0  0  0  0  0  0  0  0
    3.4124   -9.2810   17.0553 N   0  0  0  0  0  0  0  0  0  0  0  0
    9.4002   -4.2777   15.9890 C   0  0  0  0  0  0  0  0  0  0  0  0
   11.2565   -2.8190   18.8531 C   0  0  0  0  0  0  0  0  0  0  0  0
    1.3860   -9.2081   16.0076 C   0  0  0  0  0  0  0  0  0  0  0  0
   -0.6049  -10.8692   22.4441 C   0  0  0  0  0  0  0  0  0  0  0  0
    7.5780   -5.9951   16.0165 C   0  0  0  0  0  0  0  0  0  0  0  0
   -0.7359  -10.8450   20.0542 C   0  0  0  0  0  0  0  0  0  0  0  0
    1.0240  -11.7443   18.6054 C   0  0  0  0  0  0  0  0  0  0  0  0
    2.6597   -8.7525   16.1422 C   0  0  0  0  0  0  0  0  0  0  0  0
   10.7697   -3.6382   19.8893 C   0  0  0  0  0  0  0  0  0  0  0  0
    1.5848  -10.7455   17.7777 C   0  0  0  0  0  0  0  0  0  0  0  0
    5.6785   -7.4130   15.7047 C   0  0  0  0  0  0  0  0  0  0  0  0
  1 19  2  0
  2 24  4  0
  2 28  4  0
  3 19  1  0
  4 26  4  0
  4 33  4  0
  5 20  4  0
  5 27  4  0
  6 18  4  0
  6 21  4  0
  7 13  4  0
  7 25  4  0
  8 16  4  0
  8 17  4  0
  9 14  4  0
  9 17  4  0
 10 14  4  0
 10 32  4  0
 11 20  4  0
 11 29  4  0
 11 30  1  0
 12 18  4  0
 12 23  4  0
 12 33  4  0
 13 14  4  0
 13 24  4  0
 15 28  4  0
 15 34  4  0
 16 21  1  0
 16 34  4  0
 17 28  4  0
 19 32  1  0
 21 23  4  0
 22 27  4  0
 22 29  4  0
 23 31  4  0
 25 32  4  0
 26 31  4  0
 30 33  1  0
M  END
$$$$

 Created by Python create_sdf_string function

 34 39  0  0  0  0  0  0  0  0999 V2000
   11.7748   -2.4134   21.4869 O   0  0  0  0  0  0  0  0  0  0  0  0
    8.4571   -5.0280   15.5489 C   0  0  0  0  0  0  0  0  0  0  0  0
   10.6373   -4.1527   22.1338 O   0  0  0  0  0  0  0  0  0  0  0  0
    0.8865  -10.1736   16.8062 N   0  0  0  0  0  0  0  0  0  0  0  0
    0.6363  -11.5685   22.3514 C   0  0  0  0  0  0  0  0  0  0  0  0
    4.9382   -9.8865   18.4135 C   0  0  0  0  0  0  0  0  0  0  0  0
   10.8301   -3.1290   17.5832 C   0  0  0  0  0  0  0  0  0  0  0  0
    6.7438   -7.4973   17.7359 C   0  0  0  0  0  0  0  0  0  0  0  0
    8.5781   -5.9390   18.1797 N   0  0  0  0  0  0  0  0  0  0  0  0
    9.9427   -4.7068   19.6371 C   0  0  0  0  0  0  0  0  0  0  0  0
    0.4794  -11.4482   19.9323 C   0  0  0  0  0  0  0  0  0  0  0  0
    2.8970  -10.2853   17.8533 C   0  0  0  0  0  0  0  0  0  0  0  0
    9.9066   -4.1176   17.2835 C   0  0  0  0  0  0  0  0  0  0  0  0
    9.4685   -4.9581   18.3697 C   0  0  0  0  0  0  0  0  0  0  0  0
    6.5959   -6.5143   15.2606 C   0  0  0  0  0  0  0  0  0  0  0  0
    5.7287   -7.9676   16.9587 C   0  0  0  0  0  0  0  0  0  0  0  0
    7.6332   -6.5041   17.3535 C   0  0  0  0  0  0  0  0  0  0  0  0
    3.8550  -10.6808   18.6840 N   0  0  0  0  0  0  0  0  0  0  0  0
   11.0986   -3.3658   21.2207 C   0  0  0  0  0  0  0  0  0  0  0  0
    1.1160  -11.8135   21.0849 C   0  0  0  0  0  0  0  0  0  0  0  0
    4.7306   -8.9915   17.4326 C   0  0  0  0  0  0  0  0  0  0  0  0
   -1.3063  -10.5114   21.2530 C   0  0  0  0  0  0  0  0  0  0  0  0
    3.4124   -9.2810   17.0553 N   0  0  0  0  0  0  0  0  0  0  0  0
    9.4002   -4.2777   15.9890 C   0  0  0  0  0  0  0  0  0  0  0  0
   11.2565   -2.8190   18.8531 C   0  0  0  0  0  0  0  0  0  0  0  0
    1.3860   -9.2081   16.0076 C   0  0  0  0  0  0  0  0  0  0  0  0
   -0.6049  -10.8692   22.4441 C   0  0  0  0  0  0  0  0  0  0  0  0
    7.5780   -5.9951   16.0165 C   0  0  0  0  0  0  0  0  0  0  0  0
   -0.7359  -10.8450   20.0542 C   0  0  0  0  0  0  0  0  0  0  0  0
    1.0240  -11.7443   18.6054 C   0  0  0  0  0  0  0  0  0  0  0  0
    2.6597   -8.7525   16.1422 C   0  0  0  0  0  0  0  0  0  0  0  0
   10.7697   -3.6382   19.8893 C   0  0  0  0  0  0  0  0  0  0  0  0
    1.5848  -10.7455   17.7777 C   0  0  0  0  0  0  0  0  0  0  0  0
    5.6785   -7.4130   15.7047 C   0  0  0  0  0  0  0  0  0  0  0  0
  1 19  2  0
  2 24  4  0
  2 28  4  0
  3 19  1  0
  4 26  4  0
  4 33  4  0
  5 20  4  0
  5 27  4  0
  6 18  4  0
  6 21  4  0
  7 13  4  0
  7 25  4  0
  8 16  4  0
  8 17  4  0
  9 14  4  0
  9 17  4  0
 10 14  4  0
 10 32  4  0
 11 20  4  0
 11 29  4  0
 11 30  1  0
 12 18  4  0
 12 23  4  0
 12 33  4  0
 13 14  4  0
 13 24  4  0
 15 28  4  0
 15 34  4  0
 16 21  1  0
 16 34  4  0
 17 28  4  0
 19 32  1  0
 21 23  4  0
 22 27  4  0
 22 29  4  0
 23 31  4  0
 25 32  4  0
 26 31  4  0
 30 33  1  0
M  END
$$$$

 Created by Python create_sdf_string function

 34 39  0  0  0  0  0  0  0  0999 V2000
   11.7748   -2.4134   21.4869 O   0  0  0  0  0  0  0  0  0  0  0  0
    8.4571   -5.0280   15.5489 C   0  0  0  0  0  0  0  0  0  0  0  0
   10.6373   -4.1527   22.1338 O   0  0  0  0  0  0  0  0  0  0  0  0
    0.8865  -10.1736   16.8062 N   0  0  0  0  0  0  0  0  0  0  0  0
    0.6363  -11.5685   22.3514 C   0  0  0  0  0  0  0  0  0  0  0  0
    4.9382   -9.8865   18.4135 C   0  0  0  0  0  0  0  0  0  0  0  0
   10.8301   -3.1290   17.5832 C   0  0  0  0  0  0  0  0  0  0  0  0
    6.7438   -7.4973   17.7359 C   0  0  0  0  0  0  0  0  0  0  0  0
    8.5781   -5.9390   18.1797 N   0  0  0  0  0  0  0  0  0  0  0  0
    9.9427   -4.7068   19.6371 C   0  0  0  0  0  0  0  0  0  0  0  0
    0.4794  -11.4482   19.9323 C   0  0  0  0  0  0  0  0  0  0  0  0
    2.8970  -10.2853   17.8533 C   0  0  0  0  0  0  0  0  0  0  0  0
    9.9066   -4.1176   17.2835 C   0  0  0  0  0  0  0  0  0  0  0  0
    9.4685   -4.9581   18.3697 C   0  0  0  0  0  0  0  0  0  0  0  0
    6.5959   -6.5143   15.2606 C   0  0  0  0  0  0  0  0  0  0  0  0
    5.7287   -7.9676   16.9587 C   0  0  0  0  0  0  0  0  0  0  0  0
    7.6332   -6.5041   17.3535 C   0  0  0  0  0  0  0  0  0  0  0  0
    3.8550  -10.6808   18.6840 N   0  0  0  0  0  0  0  0  0  0  0  0
   11.0986   -3.3658   21.2207 C   0  0  0  0  0  0  0  0  0  0  0  0
    1.1160  -11.8135   21.0849 C   0  0  0  0  0  0  0  0  0  0  0  0
    4.7306   -8.9915   17.4326 C   0  0  0  0  0  0  0  0  0  0  0  0
   -1.3063  -10.5114   21.2530 C   0  0  0  0  0  0  0  0  0  0  0  0
    3.4124   -9.2810   17.0553 N   0  0  0  0  0  0  0  0  0  0  0  0
    9.4002   -4.2777   15.9890 C   0  0  0  0  0  0  0  0  0  0  0  0
   11.2565   -2.8190   18.8531 C   0  0  0  0  0  0  0  0  0  0  0  0
    1.3860   -9.2081   16.0076 C   0  0  0  0  0  0  0  0  0  0  0  0
   -0.6049  -10.8692   22.4441 C   0  0  0  0  0  0  0  0  0  0  0  0
    7.5780   -5.9951   16.0165 C   0  0  0  0  0  0  0  0  0  0  0  0
   -0.7359  -10.8450   20.0542 C   0  0  0  0  0  0  0  0  0  0  0  0
    1.0240  -11.7443   18.6054 C   0  0  0  0  0  0  0  0  0  0  0  0
    2.6597   -8.7525   16.1422 C   0  0  0  0  0  0  0  0  0  0  0  0
   10.7697   -3.6382   19.8893 C   0  0  0  0  0  0  0  0  0  0  0  0
    1.5848  -10.7455   17.7777 C   0  0  0  0  0  0  0  0  0  0  0  0
    5.6785   -7.4130   15.7047 C   0  0  0  0  0  0  0  0  0  0  0  0
  1 19  2  0
  2 24  4  0
  2 28  4  0
  3 19  1  0
  4 26  4  0
  4 33  4  0
  5 20  4  0
  5 27  4  0
  6 18  4  0
  6 21  4  0
  7 13  4  0
  7 25  4  0
  8 16  4  0
  8 17  4  0
  9 14  4  0
  9 17  4  0
 10 14  4  0
 10 32  4  0
 11 20  4  0
 11 29  4  0
 11 30  1  0
 12 18  4  0
 12 23  4  0
 12 33  4  0
 13 14  4  0
 13 24  4  0
 15 28  4  0
 15 34  4  0
 16 21  1  0
 16 34  4  0
 17 28  4  0
 19 32  1  0
 21 23  4  0
 22 27  4  0
 22 29  4  0
 23 31  4  0
 25 32  4  0
 26 31  4  0
 30 33  1  0
M  END
$$$$

 Created by Python create_sdf_string function

 34 39  0  0  0  0  0  0  0  0999 V2000
   11.7748   -2.4134   21.4869 O   0  0  0  0  0  0  0  0  0  0  0  0
    8.4571   -5.0280   15.5489 C   0  0  0  0  0  0  0  0  0  0  0  0
   10.6373   -4.1527   22.1338 O   0  0  0  0  0  0  0  0  0  0  0  0
    0.8865  -10.1736   16.8062 N   0  0  0  0  0  0  0  0  0  0  0  0
    0.6363  -11.5685   22.3514 C   0  0  0  0  0  0  0  0  0  0  0  0
    4.9382   -9.8865   18.4135 C   0  0  0  0  0  0  0  0  0  0  0  0
   10.8301   -3.1290   17.5832 C   0  0  0  0  0  0  0  0  0  0  0  0
    6.7438   -7.4973   17.7359 C   0  0  0  0  0  0  0  0  0  0  0  0
    8.5781   -5.9390   18.1797 N   0  0  0  0  0  0  0  0  0  0  0  0
    9.9427   -4.7068   19.6371 C   0  0  0  0  0  0  0  0  0  0  0  0
    0.4794  -11.4482   19.9323 C   0  0  0  0  0  0  0  0  0  0  0  0
    2.8970  -10.2853   17.8533 C   0  0  0  0  0  0  0  0  0  0  0  0
    9.9066   -4.1176   17.2835 C   0  0  0  0  0  0  0  0  0  0  0  0
    9.4685   -4.9581   18.3697 C   0  0  0  0  0  0  0  0  0  0  0  0
    6.5959   -6.5143   15.2606 C   0  0  0  0  0  0  0  0  0  0  0  0
    5.7287   -7.9676   16.9587 C   0  0  0  0  0  0  0  0  0  0  0  0
    7.6332   -6.5041   17.3535 C   0  0  0  0  0  0  0  0  0  0  0  0
    3.8550  -10.6808   18.6840 N   0  0  0  0  0  0  0  0  0  0  0  0
   11.0986   -3.3658   21.2207 C   0  0  0  0  0  0  0  0  0  0  0  0
    1.1160  -11.8135   21.0849 C   0  0  0  0  0  0  0  0  0  0  0  0
    4.7306   -8.9915   17.4326 C   0  0  0  0  0  0  0  0  0  0  0  0
   -1.3063  -10.5114   21.2530 C   0  0  0  0  0  0  0  0  0  0  0  0
    3.4124   -9.2810   17.0553 N   0  0  0  0  0  0  0  0  0  0  0  0
    9.4002   -4.2777   15.9890 C   0  0  0  0  0  0  0  0  0  0  0  0
   11.2565   -2.8190   18.8531 C   0  0  0  0  0  0  0  0  0  0  0  0
    1.3860   -9.2081   16.0076 C   0  0  0  0  0  0  0  0  0  0  0  0
   -0.6049  -10.8692   22.4441 C   0  0  0  0  0  0  0  0  0  0  0  0
    7.5780   -5.9951   16.0165 C   0  0  0  0  0  0  0  0  0  0  0  0
   -0.7359  -10.8450   20.0542 C   0  0  0  0  0  0  0  0  0  0  0  0
    1.0240  -11.7443   18.6054 C   0  0  0  0  0  0  0  0  0  0  0  0
    2.6597   -8.7525   16.1422 C   0  0  0  0  0  0  0  0  0  0  0  0
   10.7697   -3.6382   19.8893 C   0  0  0  0  0  0  0  0  0  0  0  0
    1.5848  -10.7455   17.7777 C   0  0  0  0  0  0  0  0  0  0  0  0
    5.6785   -7.4130   15.7047 C   0  0  0  0  0  0  0  0  0  0  0  0
  1 19  2  0
  2 24  4  0
  2 28  4  0
  3 19  1  0
  4 26  4  0
  4 33  4  0
  5 20  4  0
  5 27  4  0
  6 18  4  0
  6 21  4  0
  7 13  4  0
  7 25  4  0
  8 16  4  0
  8 17  4  0
  9 14  4  0
  9 17  4  0
 10 14  4  0
 10 32  4  0
 11 20  4  0
 11 29  4  0
 11 30  1  0
 12 18  4  0
 12 23  4  0
 12 33  4  0
 13 14  4  0
 13 24  4  0
 15 28  4  0
 15 34  4  0
 16 21  1  0
 16 34  4  0
 17 28  4  0
 19 32  1  0
 21 23  4  0
 22 27  4  0
 22 29  4  0
 23 31  4  0
 25 32  4  0
 26 31  4  0
 30 33  1  0
M  END
$$$$

 Created by Python create_sdf_string function

 34 39  0  0  0  0  0  0  0  0999 V2000
   11.7748   -2.4134   21.4869 O   0  0  0  0  0  0  0  0  0  0  0  0
    8.4571   -5.0280   15.5489 C   0  0  0  0  0  0  0  0  0  0  0  0
   10.6373   -4.1527   22.1338 O   0  0  0  0  0  0  0  0  0  0  0  0
    0.8865  -10.1736   16.8062 N   0  0  0  0  0  0  0  0  0  0  0  0
    0.6363  -11.5685   22.3514 C   0  0  0  0  0  0  0  0  0  0  0  0
    4.9382   -9.8865   18.4135 C   0  0  0  0  0  0  0  0  0  0  0  0
   10.8301   -3.1290   17.5832 C   0  0  0  0  0  0  0  0  0  0  0  0
    6.7438   -7.4973   17.7359 C   0  0  0  0  0  0  0  0  0  0  0  0
    8.5781   -5.9390   18.1797 N   0  0  0  0  0  0  0  0  0  0  0  0
    9.9427   -4.7068   19.6371 C   0  0  0  0  0  0  0  0  0  0  0  0
    0.4794  -11.4482   19.9323 C   0  0  0  0  0  0  0  0  0  0  0  0
    2.8970  -10.2853   17.8533 C   0  0  0  0  0  0  0  0  0  0  0  0
    9.9066   -4.1176   17.2835 C   0  0  0  0  0  0  0  0  0  0  0  0
    9.4685   -4.9581   18.3697 C   0  0  0  0  0  0  0  0  0  0  0  0
    6.5959   -6.5143   15.2606 C   0  0  0  0  0  0  0  0  0  0  0  0
    5.7287   -7.9676   16.9587 C   0  0  0  0  0  0  0  0  0  0  0  0
    7.6332   -6.5041   17.3535 C   0  0  0  0  0  0  0  0  0  0  0  0
    3.8550  -10.6808   18.6840 N   0  0  0  0  0  0  0  0  0  0  0  0
   11.0986   -3.3658   21.2207 C   0  0  0  0  0  0  0  0  0  0  0  0
    1.1160  -11.8135   21.0849 C   0  0  0  0  0  0  0  0  0  0  0  0
    4.7306   -8.9915   17.4326 C   0  0  0  0  0  0  0  0  0  0  0  0
   -1.3063  -10.5114   21.2530 C   0  0  0  0  0  0  0  0  0  0  0  0
    3.4124   -9.2810   17.0553 N   0  0  0  0  0  0  0  0  0  0  0  0
    9.4002   -4.2777   15.9890 C   0  0  0  0  0  0  0  0  0  0  0  0
   11.2565   -2.8190   18.8531 C   0  0  0  0  0  0  0  0  0  0  0  0
    1.3860   -9.2081   16.0076 C   0  0  0  0  0  0  0  0  0  0  0  0
   -0.6049  -10.8692   22.4441 C   0  0  0  0  0  0  0  0  0  0  0  0
    7.5780   -5.9951   16.0165 C   0  0  0  0  0  0  0  0  0  0  0  0
   -0.7359  -10.8450   20.0542 C   0  0  0  0  0  0  0  0  0  0  0  0
    1.0240  -11.7443   18.6054 C   0  0  0  0  0  0  0  0  0  0  0  0
    2.6597   -8.7525   16.1422 C   0  0  0  0  0  0  0  0  0  0  0  0
   10.7697   -3.6382   19.8893 C   0  0  0  0  0  0  0  0  0  0  0  0
    1.5848  -10.7455   17.7777 C   0  0  0  0  0  0  0  0  0  0  0  0
    5.6785   -7.4130   15.7047 C   0  0  0  0  0  0  0  0  0  0  0  0
  1 19  2  0
  2 24  4  0
  2 28  4  0
  3 19  1  0
  4 26  4  0
  4 33  4  0
  5 20  4  0
  5 27  4  0
  6 18  4  0
  6 21  4  0
  7 13  4  0
  7 25  4  0
  8 16  4  0
  8 17  4  0
  9 14  4  0
  9 17  4  0
 10 14  4  0
 10 32  4  0
 11 20  4  0
 11 29  4  0
 11 30  1  0
 12 18  4  0
 12 23  4  0
 12 33  4  0
 13 14  4  0
 13 24  4  0
 15 28  4  0
 15 34  4  0
 16 21  1  0
 16 34  4  0
 17 28  4  0
 19 32  1  0
 21 23  4  0
 22 27  4  0
 22 29  4  0
 23 31  4  0
 25 32  4  0
 26 31  4  0
 30 33  1  0
M  END
$$$$

 Created by Python create_sdf_string function

 34 39  0  0  0  0  0  0  0  0999 V2000
   11.7748   -2.4134   21.4869 O   0  0  0  0  0  0  0  0  0  0  0  0
    8.4571   -5.0280   15.5489 C   0  0  0  0  0  0  0  0  0  0  0  0
   10.6373   -4.1527   22.1338 O   0  0  0  0  0  0  0  0  0  0  0  0
    0.8865  -10.1736   16.8062 N   0  0  0  0  0  0  0  0  0  0  0  0
    0.6363  -11.5685   22.3514 C   0  0  0  0  0  0  0  0  0  0  0  0
    4.9382   -9.8865   18.4135 C   0  0  0  0  0  0  0  0  0  0  0  0
   10.8301   -3.1290   17.5832 C   0  0  0  0  0  0  0  0  0  0  0  0
    6.7438   -7.4973   17.7359 C   0  0  0  0  0  0  0  0  0  0  0  0
    8.5781   -5.9390   18.1797 N   0  0  0  0  0  0  0  0  0  0  0  0
    9.9427   -4.7068   19.6371 C   0  0  0  0  0  0  0  0  0  0  0  0
    0.4794  -11.4482   19.9323 C   0  0  0  0  0  0  0  0  0  0  0  0
    2.8970  -10.2853   17.8533 C   0  0  0  0  0  0  0  0  0  0  0  0
    9.9066   -4.1176   17.2835 C   0  0  0  0  0  0  0  0  0  0  0  0
    9.4685   -4.9581   18.3697 C   0  0  0  0  0  0  0  0  0  0  0  0
    6.5959   -6.5143   15.2606 C   0  0  0  0  0  0  0  0  0  0  0  0
    5.7287   -7.9676   16.9587 C   0  0  0  0  0  0  0  0  0  0  0  0
    7.6332   -6.5041   17.3535 C   0  0  0  0  0  0  0  0  0  0  0  0
    3.8550  -10.6808   18.6840 N   0  0  0  0  0  0  0  0  0  0  0  0
   11.0986   -3.3658   21.2207 C   0  0  0  0  0  0  0  0  0  0  0  0
    1.1160  -11.8135   21.0849 C   0  0  0  0  0  0  0  0  0  0  0  0
    4.7306   -8.9915   17.4326 C   0  0  0  0  0  0  0  0  0  0  0  0
   -1.3063  -10.5114   21.2530 C   0  0  0  0  0  0  0  0  0  0  0  0
    3.4124   -9.2810   17.0553 N   0  0  0  0  0  0  0  0  0  0  0  0
    9.4002   -4.2777   15.9890 C   0  0  0  0  0  0  0  0  0  0  0  0
   11.2565   -2.8190   18.8531 C   0  0  0  0  0  0  0  0  0  0  0  0
    1.3860   -9.2081   16.0076 C   0  0  0  0  0  0  0  0  0  0  0  0
   -0.6049  -10.8692   22.4441 C   0  0  0  0  0  0  0  0  0  0  0  0
    7.5780   -5.9951   16.0165 C   0  0  0  0  0  0  0  0  0  0  0  0
   -0.7359  -10.8450   20.0542 C   0  0  0  0  0  0  0  0  0  0  0  0
    1.0240  -11.7443   18.6054 C   0  0  0  0  0  0  0  0  0  0  0  0
    2.6597   -8.7525   16.1422 C   0  0  0  0  0  0  0  0  0  0  0  0
   10.7697   -3.6382   19.8893 C   0  0  0  0  0  0  0  0  0  0  0  0
    1.5848  -10.7455   17.7777 C   0  0  0  0  0  0  0  0  0  0  0  0
    5.6785   -7.4130   15.7047 C   0  0  0  0  0  0  0  0  0  0  0  0
  1 19  2  0
  2 24  4  0
  2 28  4  0
  3 19  1  0
  4 26  4  0
  4 33  4  0
  5 20  4  0
  5 27  4  0
  6 18  4  0
  6 21  4  0
  7 13  4  0
  7 25  4  0
  8 16  4  0
  8 17  4  0
  9 14  4  0
  9 17  4  0
 10 14  4  0
 10 32  4  0
 11 20  4  0
 11 29  4  0
 11 30  1  0
 12 18  4  0
 12 23  4  0
 12 33  4  0
 13 14  4  0
 13 24  4  0
 15 28  4  0
 15 34  4  0
 16 21  1  0
 16 34  4  0
 17 28  4  0
 19 32  1  0
 21 23  4  0
 22 27  4  0
 22 29  4  0
 23 31  4  0
 25 32  4  0
 26 31  4  0
 30 33  1  0
M  END
$$$$

 Created by Python create_sdf_string function

 34 39  0  0  0  0  0  0  0  0999 V2000
   11.7748   -2.4134   21.4869 O   0  0  0  0  0  0  0  0  0  0  0  0
    8.4571   -5.0280   15.5489 C   0  0  0  0  0  0  0  0  0  0  0  0
   10.6373   -4.1527   22.1338 O   0  0  0  0  0  0  0  0  0  0  0  0
    0.8865  -10.1736   16.8062 N   0  0  0  0  0  0  0  0  0  0  0  0
    0.6363  -11.5685   22.3514 C   0  0  0  0  0  0  0  0  0  0  0  0
    4.9382   -9.8865   18.4135 C   0  0  0  0  0  0  0  0  0  0  0  0
   10.8301   -3.1290   17.5832 C   0  0  0  0  0  0  0  0  0  0  0  0
    6.7438   -7.4973   17.7359 C   0  0  0  0  0  0  0  0  0  0  0  0
    8.5781   -5.9390   18.1797 N   0  0  0  0  0  0  0  0  0  0  0  0
    9.9427   -4.7068   19.6371 C   0  0  0  0  0  0  0  0  0  0  0  0
    0.4794  -11.4482   19.9323 C   0  0  0  0  0  0  0  0  0  0  0  0
    2.8970  -10.2853   17.8533 C   0  0  0  0  0  0  0  0  0  0  0  0
    9.9066   -4.1176   17.2835 C   0  0  0  0  0  0  0  0  0  0  0  0
    9.4685   -4.9581   18.3697 C   0  0  0  0  0  0  0  0  0  0  0  0
    6.5959   -6.5143   15.2606 C   0  0  0  0  0  0  0  0  0  0  0  0
    5.7287   -7.9676   16.9587 C   0  0  0  0  0  0  0  0  0  0  0  0
    7.6332   -6.5041   17.3535 C   0  0  0  0  0  0  0  0  0  0  0  0
    3.8550  -10.6808   18.6840 N   0  0  0  0  0  0  0  0  0  0  0  0
   11.0986   -3.3658   21.2207 C   0  0  0  0  0  0  0  0  0  0  0  0
    1.1160  -11.8135   21.0849 C   0  0  0  0  0  0  0  0  0  0  0  0
    4.7306   -8.9915   17.4326 C   0  0  0  0  0  0  0  0  0  0  0  0
   -1.3063  -10.5114   21.2530 C   0  0  0  0  0  0  0  0  0  0  0  0
    3.4124   -9.2810   17.0553 N   0  0  0  0  0  0  0  0  0  0  0  0
    9.4002   -4.2777   15.9890 C   0  0  0  0  0  0  0  0  0  0  0  0
   11.2565   -2.8190   18.8531 C   0  0  0  0  0  0  0  0  0  0  0  0
    1.3860   -9.2081   16.0076 C   0  0  0  0  0  0  0  0  0  0  0  0
   -0.6049  -10.8692   22.4441 C   0  0  0  0  0  0  0  0  0  0  0  0
    7.5780   -5.9951   16.0165 C   0  0  0  0  0  0  0  0  0  0  0  0
   -0.7359  -10.8450   20.0542 C   0  0  0  0  0  0  0  0  0  0  0  0
    1.0240  -11.7443   18.6054 C   0  0  0  0  0  0  0  0  0  0  0  0
    2.6597   -8.7525   16.1422 C   0  0  0  0  0  0  0  0  0  0  0  0
   10.7697   -3.6382   19.8893 C   0  0  0  0  0  0  0  0  0  0  0  0
    1.5848  -10.7455   17.7777 C   0  0  0  0  0  0  0  0  0  0  0  0
    5.6785   -7.4130   15.7047 C   0  0  0  0  0  0  0  0  0  0  0  0
  1 19  2  0
  2 24  4  0
  2 28  4  0
  3 19  1  0
  4 26  4  0
  4 33  4  0
  5 20  4  0
  5 27  4  0
  6 18  4  0
  6 21  4  0
  7 13  4  0
  7 25  4  0
  8 16  4  0
  8 17  4  0
  9 14  4  0
  9 17  4  0
 10 14  4  0
 10 32  4  0
 11 20  4  0
 11 29  4  0
 11 30  1  0
 12 18  4  0
 12 23  4  0
 12 33  4  0
 13 14  4  0
 13 24  4  0
 15 28  4  0
 15 34  4  0
 16 21  1  0
 16 34  4  0
 17 28  4  0
 19 32  1  0
 21 23  4  0
 22 27  4  0
 22 29  4  0
 23 31  4  0
 25 32  4  0
 26 31  4  0
 30 33  1  0
M  END
$$$$

 Created by Python create_sdf_string function

 34 39  0  0  0  0  0  0  0  0999 V2000
   11.7748   -2.4134   21.4869 O   0  0  0  0  0  0  0  0  0  0  0  0
    8.4571   -5.0280   15.5489 C   0  0  0  0  0  0  0  0  0  0  0  0
   10.6373   -4.1527   22.1338 O   0  0  0  0  0  0  0  0  0  0  0  0
    0.8865  -10.1736   16.8062 N   0  0  0  0  0  0  0  0  0  0  0  0
    0.6363  -11.5685   22.3514 C   0  0  0  0  0  0  0  0  0  0  0  0
    4.9382   -9.8865   18.4135 C   0  0  0  0  0  0  0  0  0  0  0  0
   10.8301   -3.1290   17.5832 C   0  0  0  0  0  0  0  0  0  0  0  0
    6.7438   -7.4973   17.7359 C   0  0  0  0  0  0  0  0  0  0  0  0
    8.5781   -5.9390   18.1797 N   0  0  0  0  0  0  0  0  0  0  0  0
    9.9427   -4.7068   19.6371 C   0  0  0  0  0  0  0  0  0  0  0  0
    0.4794  -11.4482   19.9323 C   0  0  0  0  0  0  0  0  0  0  0  0
    2.8970  -10.2853   17.8533 C   0  0  0  0  0  0  0  0  0  0  0  0
    9.9066   -4.1176   17.2835 C   0  0  0  0  0  0  0  0  0  0  0  0
    9.4685   -4.9581   18.3697 C   0  0  0  0  0  0  0  0  0  0  0  0
    6.5959   -6.5143   15.2606 C   0  0  0  0  0  0  0  0  0  0  0  0
    5.7287   -7.9676   16.9587 C   0  0  0  0  0  0  0  0  0  0  0  0
    7.6332   -6.5041   17.3535 C   0  0  0  0  0  0  0  0  0  0  0  0
    3.8550  -10.6808   18.6840 N   0  0  0  0  0  0  0  0  0  0  0  0
   11.0986   -3.3658   21.2207 C   0  0  0  0  0  0  0  0  0  0  0  0
    1.1160  -11.8135   21.0849 C   0  0  0  0  0  0  0  0  0  0  0  0
    4.7306   -8.9915   17.4326 C   0  0  0  0  0  0  0  0  0  0  0  0
   -1.3063  -10.5114   21.2530 C   0  0  0  0  0  0  0  0  0  0  0  0
    3.4124   -9.2810   17.0553 N   0  0  0  0  0  0  0  0  0  0  0  0
    9.4002   -4.2777   15.9890 C   0  0  0  0  0  0  0  0  0  0  0  0
   11.2565   -2.8190   18.8531 C   0  0  0  0  0  0  0  0  0  0  0  0
    1.3860   -9.2081   16.0076 C   0  0  0  0  0  0  0  0  0  0  0  0
   -0.6049  -10.8692   22.4441 C   0  0  0  0  0  0  0  0  0  0  0  0
    7.5780   -5.9951   16.0165 C   0  0  0  0  0  0  0  0  0  0  0  0
   -0.7359  -10.8450   20.0542 C   0  0  0  0  0  0  0  0  0  0  0  0
    1.0240  -11.7443   18.6054 C   0  0  0  0  0  0  0  0  0  0  0  0
    2.6597   -8.7525   16.1422 C   0  0  0  0  0  0  0  0  0  0  0  0
   10.7697   -3.6382   19.8893 C   0  0  0  0  0  0  0  0  0  0  0  0
    1.5848  -10.7455   17.7777 C   0  0  0  0  0  0  0  0  0  0  0  0
    5.6785   -7.4130   15.7047 C   0  0  0  0  0  0  0  0  0  0  0  0
  1 19  2  0
  2 24  4  0
  2 28  4  0
  3 19  1  0
  4 26  4  0
  4 33  4  0
  5 20  4  0
  5 27  4  0
  6 18  4  0
  6 21  4  0
  7 13  4  0
  7 25  4  0
  8 16  4  0
  8 17  4  0
  9 14  4  0
  9 17  4  0
 10 14  4  0
 10 32  4  0
 11 20  4  0
 11 29  4  0
 11 30  1  0
 12 18  4  0
 12 23  4  0
 12 33  4  0
 13 14  4  0
 13 24  4  0
 15 28  4  0
 15 34  4  0
 16 21  1  0
 16 34  4  0
 17 28  4  0
 19 32  1  0
 21 23  4  0
 22 27  4  0
 22 29  4  0
 23 31  4  0
 25 32  4  0
 26 31  4  0
 30 33  1  0
M  END
$$$$

 Created by Python create_sdf_string function

 34 39  0  0  0  0  0  0  0  0999 V2000
   11.7748   -2.4134   21.4869 O   0  0  0  0  0  0  0  0  0  0  0  0
    8.4571   -5.0280   15.5489 C   0  0  0  0  0  0  0  0  0  0  0  0
   10.6373   -4.1527   22.1338 O   0  0  0  0  0  0  0  0  0  0  0  0
    0.8865  -10.1736   16.8062 N   0  0  0  0  0  0  0  0  0  0  0  0
    0.6363  -11.5685   22.3514 C   0  0  0  0  0  0  0  0  0  0  0  0
    4.9382   -9.8865   18.4135 C   0  0  0  0  0  0  0  0  0  0  0  0
   10.8301   -3.1290   17.5832 C   0  0  0  0  0  0  0  0  0  0  0  0
    6.7438   -7.4973   17.7359 C   0  0  0  0  0  0  0  0  0  0  0  0
    8.5781   -5.9390   18.1797 N   0  0  0  0  0  0  0  0  0  0  0  0
    9.9427   -4.7068   19.6371 C   0  0  0  0  0  0  0  0  0  0  0  0
    0.4794  -11.4482   19.9323 C   0  0  0  0  0  0  0  0  0  0  0  0
    2.8970  -10.2853   17.8533 C   0  0  0  0  0  0  0  0  0  0  0  0
    9.9066   -4.1176   17.2835 C   0  0  0  0  0  0  0  0  0  0  0  0
    9.4685   -4.9581   18.3697 C   0  0  0  0  0  0  0  0  0  0  0  0
    6.5959   -6.5143   15.2606 C   0  0  0  0  0  0  0  0  0  0  0  0
    5.7287   -7.9676   16.9587 C   0  0  0  0  0  0  0  0  0  0  0  0
    7.6332   -6.5041   17.3535 C   0  0  0  0  0  0  0  0  0  0  0  0
    3.8550  -10.6808   18.6840 N   0  0  0  0  0  0  0  0  0  0  0  0
   11.0986   -3.3658   21.2207 C   0  0  0  0  0  0  0  0  0  0  0  0
    1.1160  -11.8135   21.0849 C   0  0  0  0  0  0  0  0  0  0  0  0
    4.7306   -8.9915   17.4326 C   0  0  0  0  0  0  0  0  0  0  0  0
   -1.3063  -10.5114   21.2530 C   0  0  0  0  0  0  0  0  0  0  0  0
    3.4124   -9.2810   17.0553 N   0  0  0  0  0  0  0  0  0  0  0  0
    9.4002   -4.2777   15.9890 C   0  0  0  0  0  0  0  0  0  0  0  0
   11.2565   -2.8190   18.8531 C   0  0  0  0  0  0  0  0  0  0  0  0
    1.3860   -9.2081   16.0076 C   0  0  0  0  0  0  0  0  0  0  0  0
   -0.6049  -10.8692   22.4441 C   0  0  0  0  0  0  0  0  0  0  0  0
    7.5780   -5.9951   16.0165 C   0  0  0  0  0  0  0  0  0  0  0  0
   -0.7359  -10.8450   20.0542 C   0  0  0  0  0  0  0  0  0  0  0  0
    1.0240  -11.7443   18.6054 C   0  0  0  0  0  0  0  0  0  0  0  0
    2.6597   -8.7525   16.1422 C   0  0  0  0  0  0  0  0  0  0  0  0
   10.7697   -3.6382   19.8893 C   0  0  0  0  0  0  0  0  0  0  0  0
    1.5848  -10.7455   17.7777 C   0  0  0  0  0  0  0  0  0  0  0  0
    5.6785   -7.4130   15.7047 C   0  0  0  0  0  0  0  0  0  0  0  0
  1 19  2  0
  2 24  4  0
  2 28  4  0
  3 19  1  0
  4 26  4  0
  4 33  4  0
  5 20  4  0
  5 27  4  0
  6 18  4  0
  6 21  4  0
  7 13  4  0
  7 25  4  0
  8 16  4  0
  8 17  4  0
  9 14  4  0
  9 17  4  0
 10 14  4  0
 10 32  4  0
 11 20  4  0
 11 29  4  0
 11 30  1  0
 12 18  4  0
 12 23  4  0
 12 33  4  0
 13 14  4  0
 13 24  4  0
 15 28  4  0
 15 34  4  0
 16 21  1  0
 16 34  4  0
 17 28  4  0
 19 32  1  0
 21 23  4  0
 22 27  4  0
 22 29  4  0
 23 31  4  0
 25 32  4  0
 26 31  4  0
 30 33  1  0
M  END
$$$$

 Created by Python create_sdf_string function

 34 39  0  0  0  0  0  0  0  0999 V2000
   11.7748   -2.4134   21.4869 O   0  0  0  0  0  0  0  0  0  0  0  0
    8.4571   -5.0280   15.5489 C   0  0  0  0  0  0  0  0  0  0  0  0
   10.6373   -4.1527   22.1338 O   0  0  0  0  0  0  0  0  0  0  0  0
    0.8865  -10.1736   16.8062 N   0  0  0  0  0  0  0  0  0  0  0  0
    0.6363  -11.5685   22.3514 C   0  0  0  0  0  0  0  0  0  0  0  0
    4.9382   -9.8865   18.4135 C   0  0  0  0  0  0  0  0  0  0  0  0
   10.8301   -3.1290   17.5832 C   0  0  0  0  0  0  0  0  0  0  0  0
    6.7438   -7.4973   17.7359 C   0  0  0  0  0  0  0  0  0  0  0  0
    8.5781   -5.9390   18.1797 N   0  0  0  0  0  0  0  0  0  0  0  0
    9.9427   -4.7068   19.6371 C   0  0  0  0  0  0  0  0  0  0  0  0
    0.4794  -11.4482   19.9323 C   0  0  0  0  0  0  0  0  0  0  0  0
    2.8970  -10.2853   17.8533 C   0  0  0  0  0  0  0  0  0  0  0  0
    9.9066   -4.1176   17.2835 C   0  0  0  0  0  0  0  0  0  0  0  0
    9.4685   -4.9581   18.3697 C   0  0  0  0  0  0  0  0  0  0  0  0
    6.5959   -6.5143   15.2606 C   0  0  0  0  0  0  0  0  0  0  0  0
    5.7287   -7.9676   16.9587 C   0  0  0  0  0  0  0  0  0  0  0  0
    7.6332   -6.5041   17.3535 C   0  0  0  0  0  0  0  0  0  0  0  0
    3.8550  -10.6808   18.6840 N   0  0  0  0  0  0  0  0  0  0  0  0
   11.0986   -3.3658   21.2207 C   0  0  0  0  0  0  0  0  0  0  0  0
    1.1160  -11.8135   21.0849 C   0  0  0  0  0  0  0  0  0  0  0  0
    4.7306   -8.9915   17.4326 C   0  0  0  0  0  0  0  0  0  0  0  0
   -1.3063  -10.5114   21.2530 C   0  0  0  0  0  0  0  0  0  0  0  0
    3.4124   -9.2810   17.0553 N   0  0  0  0  0  0  0  0  0  0  0  0
    9.4002   -4.2777   15.9890 C   0  0  0  0  0  0  0  0  0  0  0  0
   11.2565   -2.8190   18.8531 C   0  0  0  0  0  0  0  0  0  0  0  0
    1.3860   -9.2081   16.0076 C   0  0  0  0  0  0  0  0  0  0  0  0
   -0.6049  -10.8692   22.4441 C   0  0  0  0  0  0  0  0  0  0  0  0
    7.5780   -5.9951   16.0165 C   0  0  0  0  0  0  0  0  0  0  0  0
   -0.7359  -10.8450   20.0542 C   0  0  0  0  0  0  0  0  0  0  0  0
    1.0240  -11.7443   18.6054 C   0  0  0  0  0  0  0  0  0  0  0  0
    2.6597   -8.7525   16.1422 C   0  0  0  0  0  0  0  0  0  0  0  0
   10.7697   -3.6382   19.8893 C   0  0  0  0  0  0  0  0  0  0  0  0
    1.5848  -10.7455   17.7777 C   0  0  0  0  0  0  0  0  0  0  0  0
    5.6785   -7.4130   15.7047 C   0  0  0  0  0  0  0  0  0  0  0  0
  1 19  2  0
  2 24  4  0
  2 28  4  0
  3 19  1  0
  4 26  4  0
  4 33  4  0
  5 20  4  0
  5 27  4  0
  6 18  4  0
  6 21  4  0
  7 13  4  0
  7 25  4  0
  8 16  4  0
  8 17  4  0
  9 14  4  0
  9 17  4  0
 10 14  4  0
 10 32  4  0
 11 20  4  0
 11 29  4  0
 11 30  1  0
 12 18  4  0
 12 23  4  0
 12 33  4  0
 13 14  4  0
 13 24  4  0
 15 28  4  0
 15 34  4  0
 16 21  1  0
 16 34  4  0
 17 28  4  0
 19 32  1  0
 21 23  4  0
 22 27  4  0
 22 29  4  0
 23 31  4  0
 25 32  4  0
 26 31  4  0
 30 33  1  0
M  END
$$$$

 Created by Python create_sdf_string function

 34 39  0  0  0  0  0  0  0  0999 V2000
   11.7748   -2.4134   21.4869 O   0  0  0  0  0  0  0  0  0  0  0  0
    8.4571   -5.0280   15.5489 C   0  0  0  0  0  0  0  0  0  0  0  0
   10.6373   -4.1527   22.1338 O   0  0  0  0  0  0  0  0  0  0  0  0
    0.8865  -10.1736   16.8062 N   0  0  0  0  0  0  0  0  0  0  0  0
    0.6363  -11.5685   22.3514 C   0  0  0  0  0  0  0  0  0  0  0  0
    4.9382   -9.8865   18.4135 C   0  0  0  0  0  0  0  0  0  0  0  0
   10.8301   -3.1290   17.5832 C   0  0  0  0  0  0  0  0  0  0  0  0
    6.7438   -7.4973   17.7359 C   0  0  0  0  0  0  0  0  0  0  0  0
    8.5781   -5.9390   18.1797 N   0  0  0  0  0  0  0  0  0  0  0  0
    9.9427   -4.7068   19.6371 C   0  0  0  0  0  0  0  0  0  0  0  0
    0.4794  -11.4482   19.9323 C   0  0  0  0  0  0  0  0  0  0  0  0
    2.8970  -10.2853   17.8533 C   0  0  0  0  0  0  0  0  0  0  0  0
    9.9066   -4.1176   17.2835 C   0  0  0  0  0  0  0  0  0  0  0  0
    9.4685   -4.9581   18.3697 C   0  0  0  0  0  0  0  0  0  0  0  0
    6.5959   -6.5143   15.2606 C   0  0  0  0  0  0  0  0  0  0  0  0
    5.7287   -7.9676   16.9587 C   0  0  0  0  0  0  0  0  0  0  0  0
    7.6332   -6.5041   17.3535 C   0  0  0  0  0  0  0  0  0  0  0  0
    3.8550  -10.6808   18.6840 N   0  0  0  0  0  0  0  0  0  0  0  0
   11.0986   -3.3658   21.2207 C   0  0  0  0  0  0  0  0  0  0  0  0
    1.1160  -11.8135   21.0849 C   0  0  0  0  0  0  0  0  0  0  0  0
    4.7306   -8.9915   17.4326 C   0  0  0  0  0  0  0  0  0  0  0  0
   -1.3063  -10.5114   21.2530 C   0  0  0  0  0  0  0  0  0  0  0  0
    3.4124   -9.2810   17.0553 N   0  0  0  0  0  0  0  0  0  0  0  0
    9.4002   -4.2777   15.9890 C   0  0  0  0  0  0  0  0  0  0  0  0
   11.2565   -2.8190   18.8531 C   0  0  0  0  0  0  0  0  0  0  0  0
    1.3860   -9.2081   16.0076 C   0  0  0  0  0  0  0  0  0  0  0  0
   -0.6049  -10.8692   22.4441 C   0  0  0  0  0  0  0  0  0  0  0  0
    7.5780   -5.9951   16.0165 C   0  0  0  0  0  0  0  0  0  0  0  0
   -0.7359  -10.8450   20.0542 C   0  0  0  0  0  0  0  0  0  0  0  0
    1.0240  -11.7443   18.6054 C   0  0  0  0  0  0  0  0  0  0  0  0
    2.6597   -8.7525   16.1422 C   0  0  0  0  0  0  0  0  0  0  0  0
   10.7697   -3.6382   19.8893 C   0  0  0  0  0  0  0  0  0  0  0  0
    1.5848  -10.7455   17.7777 C   0  0  0  0  0  0  0  0  0  0  0  0
    5.6785   -7.4130   15.7047 C   0  0  0  0  0  0  0  0  0  0  0  0
  1 19  2  0
  2 24  4  0
  2 28  4  0
  3 19  1  0
  4 26  4  0
  4 33  4  0
  5 20  4  0
  5 27  4  0
  6 18  4  0
  6 21  4  0
  7 13  4  0
  7 25  4  0
  8 16  4  0
  8 17  4  0
  9 14  4  0
  9 17  4  0
 10 14  4  0
 10 32  4  0
 11 20  4  0
 11 29  4  0
 11 30  1  0
 12 18  4  0
 12 23  4  0
 12 33  4  0
 13 14  4  0
 13 24  4  0
 15 28  4  0
 15 34  4  0
 16 21  1  0
 16 34  4  0
 17 28  4  0
 19 32  1  0
 21 23  4  0
 22 27  4  0
 22 29  4  0
 23 31  4  0
 25 32  4  0
 26 31  4  0
 30 33  1  0
M  END
$$$$

 Created by Python create_sdf_string function

 34 39  0  0  0  0  0  0  0  0999 V2000
   11.7748   -2.4134   21.4869 O   0  0  0  0  0  0  0  0  0  0  0  0
    8.4571   -5.0280   15.5489 C   0  0  0  0  0  0  0  0  0  0  0  0
   10.6373   -4.1527   22.1338 O   0  0  0  0  0  0  0  0  0  0  0  0
    0.8865  -10.1736   16.8062 N   0  0  0  0  0  0  0  0  0  0  0  0
    0.6363  -11.5685   22.3514 C   0  0  0  0  0  0  0  0  0  0  0  0
    4.9382   -9.8865   18.4135 C   0  0  0  0  0  0  0  0  0  0  0  0
   10.8301   -3.1290   17.5832 C   0  0  0  0  0  0  0  0  0  0  0  0
    6.7438   -7.4973   17.7359 C   0  0  0  0  0  0  0  0  0  0  0  0
    8.5781   -5.9390   18.1797 N   0  0  0  0  0  0  0  0  0  0  0  0
    9.9427   -4.7068   19.6371 C   0  0  0  0  0  0  0  0  0  0  0  0
    0.4794  -11.4482   19.9323 C   0  0  0  0  0  0  0  0  0  0  0  0
    2.8970  -10.2853   17.8533 C   0  0  0  0  0  0  0  0  0  0  0  0
    9.9066   -4.1176   17.2835 C   0  0  0  0  0  0  0  0  0  0  0  0
    9.4685   -4.9581   18.3697 C   0  0  0  0  0  0  0  0  0  0  0  0
    6.5959   -6.5143   15.2606 C   0  0  0  0  0  0  0  0  0  0  0  0
    5.7287   -7.9676   16.9587 C   0  0  0  0  0  0  0  0  0  0  0  0
    7.6332   -6.5041   17.3535 C   0  0  0  0  0  0  0  0  0  0  0  0
    3.8550  -10.6808   18.6840 N   0  0  0  0  0  0  0  0  0  0  0  0
   11.0986   -3.3658   21.2207 C   0  0  0  0  0  0  0  0  0  0  0  0
    1.1160  -11.8135   21.0849 C   0  0  0  0  0  0  0  0  0  0  0  0
    4.7306   -8.9915   17.4326 C   0  0  0  0  0  0  0  0  0  0  0  0
   -1.3063  -10.5114   21.2530 C   0  0  0  0  0  0  0  0  0  0  0  0
    3.4124   -9.2810   17.0553 N   0  0  0  0  0  0  0  0  0  0  0  0
    9.4002   -4.2777   15.9890 C   0  0  0  0  0  0  0  0  0  0  0  0
   11.2565   -2.8190   18.8531 C   0  0  0  0  0  0  0  0  0  0  0  0
    1.3860   -9.2081   16.0076 C   0  0  0  0  0  0  0  0  0  0  0  0
   -0.6049  -10.8692   22.4441 C   0  0  0  0  0  0  0  0  0  0  0  0
    7.5780   -5.9951   16.0165 C   0  0  0  0  0  0  0  0  0  0  0  0
   -0.7359  -10.8450   20.0542 C   0  0  0  0  0  0  0  0  0  0  0  0
    1.0240  -11.7443   18.6054 C   0  0  0  0  0  0  0  0  0  0  0  0
    2.6597   -8.7525   16.1422 C   0  0  0  0  0  0  0  0  0  0  0  0
   10.7697   -3.6382   19.8893 C   0  0  0  0  0  0  0  0  0  0  0  0
    1.5848  -10.7455   17.7777 C   0  0  0  0  0  0  0  0  0  0  0  0
    5.6785   -7.4130   15.7047 C   0  0  0  0  0  0  0  0  0  0  0  0
  1 19  2  0
  2 24  4  0
  2 28  4  0
  3 19  1  0
  4 26  4  0
  4 33  4  0
  5 20  4  0
  5 27  4  0
  6 18  4  0
  6 21  4  0
  7 13  4  0
  7 25  4  0
  8 16  4  0
  8 17  4  0
  9 14  4  0
  9 17  4  0
 10 14  4  0
 10 32  4  0
 11 20  4  0
 11 29  4  0
 11 30  1  0
 12 18  4  0
 12 23  4  0
 12 33  4  0
 13 14  4  0
 13 24  4  0
 15 28  4  0
 15 34  4  0
 16 21  1  0
 16 34  4  0
 17 28  4  0
 19 32  1  0
 21 23  4  0
 22 27  4  0
 22 29  4  0
 23 31  4  0
 25 32  4  0
 26 31  4  0
 30 33  1  0
M  END
$$$$

 Created by Python create_sdf_string function

 34 39  0  0  0  0  0  0  0  0999 V2000
   11.7748   -2.4134   21.4869 O   0  0  0  0  0  0  0  0  0  0  0  0
    8.4571   -5.0280   15.5489 C   0  0  0  0  0  0  0  0  0  0  0  0
   10.6373   -4.1527   22.1338 O   0  0  0  0  0  0  0  0  0  0  0  0
    0.8865  -10.1736   16.8062 N   0  0  0  0  0  0  0  0  0  0  0  0
    0.6363  -11.5685   22.3514 C   0  0  0  0  0  0  0  0  0  0  0  0
    4.9382   -9.8865   18.4135 C   0  0  0  0  0  0  0  0  0  0  0  0
   10.8301   -3.1290   17.5832 C   0  0  0  0  0  0  0  0  0  0  0  0
    6.7438   -7.4973   17.7359 C   0  0  0  0  0  0  0  0  0  0  0  0
    8.5781   -5.9390   18.1797 N   0  0  0  0  0  0  0  0  0  0  0  0
    9.9427   -4.7068   19.6371 C   0  0  0  0  0  0  0  0  0  0  0  0
    0.4794  -11.4482   19.9323 C   0  0  0  0  0  0  0  0  0  0  0  0
    2.8970  -10.2853   17.8533 C   0  0  0  0  0  0  0  0  0  0  0  0
    9.9066   -4.1176   17.2835 C   0  0  0  0  0  0  0  0  0  0  0  0
    9.4685   -4.9581   18.3697 C   0  0  0  0  0  0  0  0  0  0  0  0
    6.5959   -6.5143   15.2606 C   0  0  0  0  0  0  0  0  0  0  0  0
    5.7287   -7.9676   16.9587 C   0  0  0  0  0  0  0  0  0  0  0  0
    7.6332   -6.5041   17.3535 C   0  0  0  0  0  0  0  0  0  0  0  0
    3.8550  -10.6808   18.6840 N   0  0  0  0  0  0  0  0  0  0  0  0
   11.0986   -3.3658   21.2207 C   0  0  0  0  0  0  0  0  0  0  0  0
    1.1160  -11.8135   21.0849 C   0  0  0  0  0  0  0  0  0  0  0  0
    4.7306   -8.9915   17.4326 C   0  0  0  0  0  0  0  0  0  0  0  0
   -1.3063  -10.5114   21.2530 C   0  0  0  0  0  0  0  0  0  0  0  0
    3.4124   -9.2810   17.0553 N   0  0  0  0  0  0  0  0  0  0  0  0
    9.4002   -4.2777   15.9890 C   0  0  0  0  0  0  0  0  0  0  0  0
   11.2565   -2.8190   18.8531 C   0  0  0  0  0  0  0  0  0  0  0  0
    1.3860   -9.2081   16.0076 C   0  0  0  0  0  0  0  0  0  0  0  0
   -0.6049  -10.8692   22.4441 C   0  0  0  0  0  0  0  0  0  0  0  0
    7.5780   -5.9951   16.0165 C   0  0  0  0  0  0  0  0  0  0  0  0
   -0.7359  -10.8450   20.0542 C   0  0  0  0  0  0  0  0  0  0  0  0
    1.0240  -11.7443   18.6054 C   0  0  0  0  0  0  0  0  0  0  0  0
    2.6597   -8.7525   16.1422 C   0  0  0  0  0  0  0  0  0  0  0  0
   10.7697   -3.6382   19.8893 C   0  0  0  0  0  0  0  0  0  0  0  0
    1.5848  -10.7455   17.7777 C   0  0  0  0  0  0  0  0  0  0  0  0
    5.6785   -7.4130   15.7047 C   0  0  0  0  0  0  0  0  0  0  0  0
  1 19  2  0
  2 24  4  0
  2 28  4  0
  3 19  1  0
  4 26  4  0
  4 33  4  0
  5 20  4  0
  5 27  4  0
  6 18  4  0
  6 21  4  0
  7 13  4  0
  7 25  4  0
  8 16  4  0
  8 17  4  0
  9 14  4  0
  9 17  4  0
 10 14  4  0
 10 32  4  0
 11 20  4  0
 11 29  4  0
 11 30  1  0
 12 18  4  0
 12 23  4  0
 12 33  4  0
 13 14  4  0
 13 24  4  0
 15 28  4  0
 15 34  4  0
 16 21  1  0
 16 34  4  0
 17 28  4  0
 19 32  1  0
 21 23  4  0
 22 27  4  0
 22 29  4  0
 23 31  4  0
 25 32  4  0
 26 31  4  0
 30 33  1  0
M  END
$$$$

 Created by Python create_sdf_string function

 34 39  0  0  0  0  0  0  0  0999 V2000
   11.7748   -2.4134   21.4869 O   0  0  0  0  0  0  0  0  0  0  0  0
    8.4571   -5.0280   15.5489 C   0  0  0  0  0  0  0  0  0  0  0  0
   10.6373   -4.1527   22.1338 O   0  0  0  0  0  0  0  0  0  0  0  0
    0.8865  -10.1736   16.8062 N   0  0  0  0  0  0  0  0  0  0  0  0
    0.6363  -11.5685   22.3514 C   0  0  0  0  0  0  0  0  0  0  0  0
    4.9382   -9.8865   18.4135 C   0  0  0  0  0  0  0  0  0  0  0  0
   10.8301   -3.1290   17.5832 C   0  0  0  0  0  0  0  0  0  0  0  0
    6.7438   -7.4973   17.7359 C   0  0  0  0  0  0  0  0  0  0  0  0
    8.5781   -5.9390   18.1797 N   0  0  0  0  0  0  0  0  0  0  0  0
    9.9427   -4.7068   19.6371 C   0  0  0  0  0  0  0  0  0  0  0  0
    0.4794  -11.4482   19.9323 C   0  0  0  0  0  0  0  0  0  0  0  0
    2.8970  -10.2853   17.8533 C   0  0  0  0  0  0  0  0  0  0  0  0
    9.9066   -4.1176   17.2835 C   0  0  0  0  0  0  0  0  0  0  0  0
    9.4685   -4.9581   18.3697 C   0  0  0  0  0  0  0  0  0  0  0  0
    6.5959   -6.5143   15.2606 C   0  0  0  0  0  0  0  0  0  0  0  0
    5.7287   -7.9676   16.9587 C   0  0  0  0  0  0  0  0  0  0  0  0
    7.6332   -6.5041   17.3535 C   0  0  0  0  0  0  0  0  0  0  0  0
    3.8550  -10.6808   18.6840 N   0  0  0  0  0  0  0  0  0  0  0  0
   11.0986   -3.3658   21.2207 C   0  0  0  0  0  0  0  0  0  0  0  0
    1.1160  -11.8135   21.0849 C   0  0  0  0  0  0  0  0  0  0  0  0
    4.7306   -8.9915   17.4326 C   0  0  0  0  0  0  0  0  0  0  0  0
   -1.3063  -10.5114   21.2530 C   0  0  0  0  0  0  0  0  0  0  0  0
    3.4124   -9.2810   17.0553 N   0  0  0  0  0  0  0  0  0  0  0  0
    9.4002   -4.2777   15.9890 C   0  0  0  0  0  0  0  0  0  0  0  0
   11.2565   -2.8190   18.8531 C   0  0  0  0  0  0  0  0  0  0  0  0
    1.3860   -9.2081   16.0076 C   0  0  0  0  0  0  0  0  0  0  0  0
   -0.6049  -10.8692   22.4441 C   0  0  0  0  0  0  0  0  0  0  0  0
    7.5780   -5.9951   16.0165 C   0  0  0  0  0  0  0  0  0  0  0  0
   -0.7359  -10.8450   20.0542 C   0  0  0  0  0  0  0  0  0  0  0  0
    1.0240  -11.7443   18.6054 C   0  0  0  0  0  0  0  0  0  0  0  0
    2.6597   -8.7525   16.1422 C   0  0  0  0  0  0  0  0  0  0  0  0
   10.7697   -3.6382   19.8893 C   0  0  0  0  0  0  0  0  0  0  0  0
    1.5848  -10.7455   17.7777 C   0  0  0  0  0  0  0  0  0  0  0  0
    5.6785   -7.4130   15.7047 C   0  0  0  0  0  0  0  0  0  0  0  0
  1 19  2  0
  2 24  4  0
  2 28  4  0
  3 19  1  0
  4 26  4  0
  4 33  4  0
  5 20  4  0
  5 27  4  0
  6 18  4  0
  6 21  4  0
  7 13  4  0
  7 25  4  0
  8 16  4  0
  8 17  4  0
  9 14  4  0
  9 17  4  0
 10 14  4  0
 10 32  4  0
 11 20  4  0
 11 29  4  0
 11 30  1  0
 12 18  4  0
 12 23  4  0
 12 33  4  0
 13 14  4  0
 13 24  4  0
 15 28  4  0
 15 34  4  0
 16 21  1  0
 16 34  4  0
 17 28  4  0
 19 32  1  0
 21 23  4  0
 22 27  4  0
 22 29  4  0
 23 31  4  0
 25 32  4  0
 26 31  4  0
 30 33  1  0
M  END
$$$$

 Created by Python create_sdf_string function

 34 39  0  0  0  0  0  0  0  0999 V2000
   11.7748   -2.4134   21.4869 O   0  0  0  0  0  0  0  0  0  0  0  0
    8.4571   -5.0280   15.5489 C   0  0  0  0  0  0  0  0  0  0  0  0
   10.6373   -4.1527   22.1338 O   0  0  0  0  0  0  0  0  0  0  0  0
    0.8865  -10.1736   16.8062 N   0  0  0  0  0  0  0  0  0  0  0  0
    0.6363  -11.5685   22.3514 C   0  0  0  0  0  0  0  0  0  0  0  0
    4.9382   -9.8865   18.4135 C   0  0  0  0  0  0  0  0  0  0  0  0
   10.8301   -3.1290   17.5832 C   0  0  0  0  0  0  0  0  0  0  0  0
    6.7438   -7.4973   17.7359 C   0  0  0  0  0  0  0  0  0  0  0  0
    8.5781   -5.9390   18.1797 N   0  0  0  0  0  0  0  0  0  0  0  0
    9.9427   -4.7068   19.6371 C   0  0  0  0  0  0  0  0  0  0  0  0
    0.4794  -11.4482   19.9323 C   0  0  0  0  0  0  0  0  0  0  0  0
    2.8970  -10.2853   17.8533 C   0  0  0  0  0  0  0  0  0  0  0  0
    9.9066   -4.1176   17.2835 C   0  0  0  0  0  0  0  0  0  0  0  0
    9.4685   -4.9581   18.3697 C   0  0  0  0  0  0  0  0  0  0  0  0
    6.5959   -6.5143   15.2606 C   0  0  0  0  0  0  0  0  0  0  0  0
    5.7287   -7.9676   16.9587 C   0  0  0  0  0  0  0  0  0  0  0  0
    7.6332   -6.5041   17.3535 C   0  0  0  0  0  0  0  0  0  0  0  0
    3.8550  -10.6808   18.6840 N   0  0  0  0  0  0  0  0  0  0  0  0
   11.0986   -3.3658   21.2207 C   0  0  0  0  0  0  0  0  0  0  0  0
    1.1160  -11.8135   21.0849 C   0  0  0  0  0  0  0  0  0  0  0  0
    4.7306   -8.9915   17.4326 C   0  0  0  0  0  0  0  0  0  0  0  0
   -1.3063  -10.5114   21.2530 C   0  0  0  0  0  0  0  0  0  0  0  0
    3.4124   -9.2810   17.0553 N   0  0  0  0  0  0  0  0  0  0  0  0
    9.4002   -4.2777   15.9890 C   0  0  0  0  0  0  0  0  0  0  0  0
   11.2565   -2.8190   18.8531 C   0  0  0  0  0  0  0  0  0  0  0  0
    1.3860   -9.2081   16.0076 C   0  0  0  0  0  0  0  0  0  0  0  0
   -0.6049  -10.8692   22.4441 C   0  0  0  0  0  0  0  0  0  0  0  0
    7.5780   -5.9951   16.0165 C   0  0  0  0  0  0  0  0  0  0  0  0
   -0.7359  -10.8450   20.0542 C   0  0  0  0  0  0  0  0  0  0  0  0
    1.0240  -11.7443   18.6054 C   0  0  0  0  0  0  0  0  0  0  0  0
    2.6597   -8.7525   16.1422 C   0  0  0  0  0  0  0  0  0  0  0  0
   10.7697   -3.6382   19.8893 C   0  0  0  0  0  0  0  0  0  0  0  0
    1.5848  -10.7455   17.7777 C   0  0  0  0  0  0  0  0  0  0  0  0
    5.6785   -7.4130   15.7047 C   0  0  0  0  0  0  0  0  0  0  0  0
  1 19  2  0
  2 24  4  0
  2 28  4  0
  3 19  1  0
  4 26  4  0
  4 33  4  0
  5 20  4  0
  5 27  4  0
  6 18  4  0
  6 21  4  0
  7 13  4  0
  7 25  4  0
  8 16  4  0
  8 17  4  0
  9 14  4  0
  9 17  4  0
 10 14  4  0
 10 32  4  0
 11 20  4  0
 11 29  4  0
 11 30  1  0
 12 18  4  0
 12 23  4  0
 12 33  4  0
 13 14  4  0
 13 24  4  0
 15 28  4  0
 15 34  4  0
 16 21  1  0
 16 34  4  0
 17 28  4  0
 19 32  1  0
 21 23  4  0
 22 27  4  0
 22 29  4  0
 23 31  4  0
 25 32  4  0
 26 31  4  0
 30 33  1  0
M  END
$$$$

 Created by Python create_sdf_string function

 34 39  0  0  0  0  0  0  0  0999 V2000
   11.7748   -2.4134   21.4869 O   0  0  0  0  0  0  0  0  0  0  0  0
    8.4571   -5.0280   15.5489 C   0  0  0  0  0  0  0  0  0  0  0  0
   10.6373   -4.1527   22.1338 O   0  0  0  0  0  0  0  0  0  0  0  0
    0.8865  -10.1736   16.8062 N   0  0  0  0  0  0  0  0  0  0  0  0
    0.6363  -11.5685   22.3514 C   0  0  0  0  0  0  0  0  0  0  0  0
    4.9382   -9.8865   18.4135 C   0  0  0  0  0  0  0  0  0  0  0  0
   10.8301   -3.1290   17.5832 C   0  0  0  0  0  0  0  0  0  0  0  0
    6.7438   -7.4973   17.7359 C   0  0  0  0  0  0  0  0  0  0  0  0
    8.5781   -5.9390   18.1797 N   0  0  0  0  0  0  0  0  0  0  0  0
    9.9427   -4.7068   19.6371 C   0  0  0  0  0  0  0  0  0  0  0  0
    0.4794  -11.4482   19.9323 C   0  0  0  0  0  0  0  0  0  0  0  0
    2.8970  -10.2853   17.8533 C   0  0  0  0  0  0  0  0  0  0  0  0
    9.9066   -4.1176   17.2835 C   0  0  0  0  0  0  0  0  0  0  0  0
    9.4685   -4.9581   18.3697 C   0  0  0  0  0  0  0  0  0  0  0  0
    6.5959   -6.5143   15.2606 C   0  0  0  0  0  0  0  0  0  0  0  0
    5.7287   -7.9676   16.9587 C   0  0  0  0  0  0  0  0  0  0  0  0
    7.6332   -6.5041   17.3535 C   0  0  0  0  0  0  0  0  0  0  0  0
    3.8550  -10.6808   18.6840 N   0  0  0  0  0  0  0  0  0  0  0  0
   11.0986   -3.3658   21.2207 C   0  0  0  0  0  0  0  0  0  0  0  0
    1.1160  -11.8135   21.0849 C   0  0  0  0  0  0  0  0  0  0  0  0
    4.7306   -8.9915   17.4326 C   0  0  0  0  0  0  0  0  0  0  0  0
   -1.3063  -10.5114   21.2530 C   0  0  0  0  0  0  0  0  0  0  0  0
    3.4124   -9.2810   17.0553 N   0  0  0  0  0  0  0  0  0  0  0  0
    9.4002   -4.2777   15.9890 C   0  0  0  0  0  0  0  0  0  0  0  0
   11.2565   -2.8190   18.8531 C   0  0  0  0  0  0  0  0  0  0  0  0
    1.3860   -9.2081   16.0076 C   0  0  0  0  0  0  0  0  0  0  0  0
   -0.6049  -10.8692   22.4441 C   0  0  0  0  0  0  0  0  0  0  0  0
    7.5780   -5.9951   16.0165 C   0  0  0  0  0  0  0  0  0  0  0  0
   -0.7359  -10.8450   20.0542 C   0  0  0  0  0  0  0  0  0  0  0  0
    1.0240  -11.7443   18.6054 C   0  0  0  0  0  0  0  0  0  0  0  0
    2.6597   -8.7525   16.1422 C   0  0  0  0  0  0  0  0  0  0  0  0
   10.7697   -3.6382   19.8893 C   0  0  0  0  0  0  0  0  0  0  0  0
    1.5848  -10.7455   17.7777 C   0  0  0  0  0  0  0  0  0  0  0  0
    5.6785   -7.4130   15.7047 C   0  0  0  0  0  0  0  0  0  0  0  0
  1 19  2  0
  2 24  4  0
  2 28  4  0
  3 19  1  0
  4 26  4  0
  4 33  4  0
  5 20  4  0
  5 27  4  0
  6 18  4  0
  6 21  4  0
  7 13  4  0
  7 25  4  0
  8 16  4  0
  8 17  4  0
  9 14  4  0
  9 17  4  0
 10 14  4  0
 10 32  4  0
 11 20  4  0
 11 29  4  0
 11 30  1  0
 12 18  4  0
 12 23  4  0
 12 33  4  0
 13 14  4  0
 13 24  4  0
 15 28  4  0
 15 34  4  0
 16 21  1  0
 16 34  4  0
 17 28  4  0
 19 32  1  0
 21 23  4  0
 22 27  4  0
 22 29  4  0
 23 31  4  0
 25 32  4  0
 26 31  4  0
 30 33  1  0
M  END
$$$$

 Created by Python create_sdf_string function

 34 39  0  0  0  0  0  0  0  0999 V2000
   11.7748   -2.4134   21.4869 O   0  0  0  0  0  0  0  0  0  0  0  0
    8.4571   -5.0280   15.5489 C   0  0  0  0  0  0  0  0  0  0  0  0
   10.6373   -4.1527   22.1338 O   0  0  0  0  0  0  0  0  0  0  0  0
    0.8865  -10.1736   16.8062 N   0  0  0  0  0  0  0  0  0  0  0  0
    0.6363  -11.5685   22.3514 C   0  0  0  0  0  0  0  0  0  0  0  0
    4.9382   -9.8865   18.4135 C   0  0  0  0  0  0  0  0  0  0  0  0
   10.8301   -3.1290   17.5832 C   0  0  0  0  0  0  0  0  0  0  0  0
    6.7438   -7.4973   17.7359 C   0  0  0  0  0  0  0  0  0  0  0  0
    8.5781   -5.9390   18.1797 N   0  0  0  0  0  0  0  0  0  0  0  0
    9.9427   -4.7068   19.6371 C   0  0  0  0  0  0  0  0  0  0  0  0
    0.4794  -11.4482   19.9323 C   0  0  0  0  0  0  0  0  0  0  0  0
    2.8970  -10.2853   17.8533 C   0  0  0  0  0  0  0  0  0  0  0  0
    9.9066   -4.1176   17.2835 C   0  0  0  0  0  0  0  0  0  0  0  0
    9.4685   -4.9581   18.3697 C   0  0  0  0  0  0  0  0  0  0  0  0
    6.5959   -6.5143   15.2606 C   0  0  0  0  0  0  0  0  0  0  0  0
    5.7287   -7.9676   16.9587 C   0  0  0  0  0  0  0  0  0  0  0  0
    7.6332   -6.5041   17.3535 C   0  0  0  0  0  0  0  0  0  0  0  0
    3.8550  -10.6808   18.6840 N   0  0  0  0  0  0  0  0  0  0  0  0
   11.0986   -3.3658   21.2207 C   0  0  0  0  0  0  0  0  0  0  0  0
    1.1160  -11.8135   21.0849 C   0  0  0  0  0  0  0  0  0  0  0  0
    4.7306   -8.9915   17.4326 C   0  0  0  0  0  0  0  0  0  0  0  0
   -1.3063  -10.5114   21.2530 C   0  0  0  0  0  0  0  0  0  0  0  0
    3.4124   -9.2810   17.0553 N   0  0  0  0  0  0  0  0  0  0  0  0
    9.4002   -4.2777   15.9890 C   0  0  0  0  0  0  0  0  0  0  0  0
   11.2565   -2.8190   18.8531 C   0  0  0  0  0  0  0  0  0  0  0  0
    1.3860   -9.2081   16.0076 C   0  0  0  0  0  0  0  0  0  0  0  0
   -0.6049  -10.8692   22.4441 C   0  0  0  0  0  0  0  0  0  0  0  0
    7.5780   -5.9951   16.0165 C   0  0  0  0  0  0  0  0  0  0  0  0
   -0.7359  -10.8450   20.0542 C   0  0  0  0  0  0  0  0  0  0  0  0
    1.0240  -11.7443   18.6054 C   0  0  0  0  0  0  0  0  0  0  0  0
    2.6597   -8.7525   16.1422 C   0  0  0  0  0  0  0  0  0  0  0  0
   10.7697   -3.6382   19.8893 C   0  0  0  0  0  0  0  0  0  0  0  0
    1.5848  -10.7455   17.7777 C   0  0  0  0  0  0  0  0  0  0  0  0
    5.6785   -7.4130   15.7047 C   0  0  0  0  0  0  0  0  0  0  0  0
  1 19  2  0
  2 24  4  0
  2 28  4  0
  3 19  1  0
  4 26  4  0
  4 33  4  0
  5 20  4  0
  5 27  4  0
  6 18  4  0
  6 21  4  0
  7 13  4  0
  7 25  4  0
  8 16  4  0
  8 17  4  0
  9 14  4  0
  9 17  4  0
 10 14  4  0
 10 32  4  0
 11 20  4  0
 11 29  4  0
 11 30  1  0
 12 18  4  0
 12 23  4  0
 12 33  4  0
 13 14  4  0
 13 24  4  0
 15 28  4  0
 15 34  4  0
 16 21  1  0
 16 34  4  0
 17 28  4  0
 19 32  1  0
 21 23  4  0
 22 27  4  0
 22 29  4  0
 23 31  4  0
 25 32  4  0
 26 31  4  0
 30 33  1  0
M  END
$$$$

 Created by Python create_sdf_string function

 34 39  0  0  0  0  0  0  0  0999 V2000
   11.7748   -2.4134   21.4869 O   0  0  0  0  0  0  0  0  0  0  0  0
    8.4571   -5.0280   15.5489 C   0  0  0  0  0  0  0  0  0  0  0  0
   10.6373   -4.1527   22.1338 O   0  0  0  0  0  0  0  0  0  0  0  0
    0.8865  -10.1736   16.8062 N   0  0  0  0  0  0  0  0  0  0  0  0
    0.6363  -11.5685   22.3514 C   0  0  0  0  0  0  0  0  0  0  0  0
    4.9382   -9.8865   18.4135 C   0  0  0  0  0  0  0  0  0  0  0  0
   10.8301   -3.1290   17.5832 C   0  0  0  0  0  0  0  0  0  0  0  0
    6.7438   -7.4973   17.7359 C   0  0  0  0  0  0  0  0  0  0  0  0
    8.5781   -5.9390   18.1797 N   0  0  0  0  0  0  0  0  0  0  0  0
    9.9427   -4.7068   19.6371 C   0  0  0  0  0  0  0  0  0  0  0  0
    0.4794  -11.4482   19.9323 C   0  0  0  0  0  0  0  0  0  0  0  0
    2.8970  -10.2853   17.8533 C   0  0  0  0  0  0  0  0  0  0  0  0
    9.9066   -4.1176   17.2835 C   0  0  0  0  0  0  0  0  0  0  0  0
    9.4685   -4.9581   18.3697 C   0  0  0  0  0  0  0  0  0  0  0  0
    6.5959   -6.5143   15.2606 C   0  0  0  0  0  0  0  0  0  0  0  0
    5.7287   -7.9676   16.9587 C   0  0  0  0  0  0  0  0  0  0  0  0
    7.6332   -6.5041   17.3535 C   0  0  0  0  0  0  0  0  0  0  0  0
    3.8550  -10.6808   18.6840 N   0  0  0  0  0  0  0  0  0  0  0  0
   11.0986   -3.3658   21.2207 C   0  0  0  0  0  0  0  0  0  0  0  0
    1.1160  -11.8135   21.0849 C   0  0  0  0  0  0  0  0  0  0  0  0
    4.7306   -8.9915   17.4326 C   0  0  0  0  0  0  0  0  0  0  0  0
   -1.3063  -10.5114   21.2530 C   0  0  0  0  0  0  0  0  0  0  0  0
    3.4124   -9.2810   17.0553 N   0  0  0  0  0  0  0  0  0  0  0  0
    9.4002   -4.2777   15.9890 C   0  0  0  0  0  0  0  0  0  0  0  0
   11.2565   -2.8190   18.8531 C   0  0  0  0  0  0  0  0  0  0  0  0
    1.3860   -9.2081   16.0076 C   0  0  0  0  0  0  0  0  0  0  0  0
   -0.6049  -10.8692   22.4441 C   0  0  0  0  0  0  0  0  0  0  0  0
    7.5780   -5.9951   16.0165 C   0  0  0  0  0  0  0  0  0  0  0  0
   -0.7359  -10.8450   20.0542 C   0  0  0  0  0  0  0  0  0  0  0  0
    1.0240  -11.7443   18.6054 C   0  0  0  0  0  0  0  0  0  0  0  0
    2.6597   -8.7525   16.1422 C   0  0  0  0  0  0  0  0  0  0  0  0
   10.7697   -3.6382   19.8893 C   0  0  0  0  0  0  0  0  0  0  0  0
    1.5848  -10.7455   17.7777 C   0  0  0  0  0  0  0  0  0  0  0  0
    5.6785   -7.4130   15.7047 C   0  0  0  0  0  0  0  0  0  0  0  0
  1 19  2  0
  2 24  4  0
  2 28  4  0
  3 19  1  0
  4 26  4  0
  4 33  4  0
  5 20  4  0
  5 27  4  0
  6 18  4  0
  6 21  4  0
  7 13  4  0
  7 25  4  0
  8 16  4  0
  8 17  4  0
  9 14  4  0
  9 17  4  0
 10 14  4  0
 10 32  4  0
 11 20  4  0
 11 29  4  0
 11 30  1  0
 12 18  4  0
 12 23  4  0
 12 33  4  0
 13 14  4  0
 13 24  4  0
 15 28  4  0
 15 34  4  0
 16 21  1  0
 16 34  4  0
 17 28  4  0
 19 32  1  0
 21 23  4  0
 22 27  4  0
 22 29  4  0
 23 31  4  0
 25 32  4  0
 26 31  4  0
 30 33  1  0
M  END
$$$$

 Created by Python create_sdf_string function

 34 39  0  0  0  0  0  0  0  0999 V2000
   11.7748   -2.4134   21.4869 O   0  0  0  0  0  0  0  0  0  0  0  0
    8.4571   -5.0280   15.5489 C   0  0  0  0  0  0  0  0  0  0  0  0
   10.6373   -4.1527   22.1338 O   0  0  0  0  0  0  0  0  0  0  0  0
    0.8865  -10.1736   16.8062 N   0  0  0  0  0  0  0  0  0  0  0  0
    0.6363  -11.5685   22.3514 C   0  0  0  0  0  0  0  0  0  0  0  0
    4.9382   -9.8865   18.4135 C   0  0  0  0  0  0  0  0  0  0  0  0
   10.8301   -3.1290   17.5832 C   0  0  0  0  0  0  0  0  0  0  0  0
    6.7438   -7.4973   17.7359 C   0  0  0  0  0  0  0  0  0  0  0  0
    8.5781   -5.9390   18.1797 N   0  0  0  0  0  0  0  0  0  0  0  0
    9.9427   -4.7068   19.6371 C   0  0  0  0  0  0  0  0  0  0  0  0
    0.4794  -11.4482   19.9323 C   0  0  0  0  0  0  0  0  0  0  0  0
    2.8970  -10.2853   17.8533 C   0  0  0  0  0  0  0  0  0  0  0  0
    9.9066   -4.1176   17.2835 C   0  0  0  0  0  0  0  0  0  0  0  0
    9.4685   -4.9581   18.3697 C   0  0  0  0  0  0  0  0  0  0  0  0
    6.5959   -6.5143   15.2606 C   0  0  0  0  0  0  0  0  0  0  0  0
    5.7287   -7.9676   16.9587 C   0  0  0  0  0  0  0  0  0  0  0  0
    7.6332   -6.5041   17.3535 C   0  0  0  0  0  0  0  0  0  0  0  0
    3.8550  -10.6808   18.6840 N   0  0  0  0  0  0  0  0  0  0  0  0
   11.0986   -3.3658   21.2207 C   0  0  0  0  0  0  0  0  0  0  0  0
    1.1160  -11.8135   21.0849 C   0  0  0  0  0  0  0  0  0  0  0  0
    4.7306   -8.9915   17.4326 C   0  0  0  0  0  0  0  0  0  0  0  0
   -1.3063  -10.5114   21.2530 C   0  0  0  0  0  0  0  0  0  0  0  0
    3.4124   -9.2810   17.0553 N   0  0  0  0  0  0  0  0  0  0  0  0
    9.4002   -4.2777   15.9890 C   0  0  0  0  0  0  0  0  0  0  0  0
   11.2565   -2.8190   18.8531 C   0  0  0  0  0  0  0  0  0  0  0  0
    1.3860   -9.2081   16.0076 C   0  0  0  0  0  0  0  0  0  0  0  0
   -0.6049  -10.8692   22.4441 C   0  0  0  0  0  0  0  0  0  0  0  0
    7.5780   -5.9951   16.0165 C   0  0  0  0  0  0  0  0  0  0  0  0
   -0.7359  -10.8450   20.0542 C   0  0  0  0  0  0  0  0  0  0  0  0
    1.0240  -11.7443   18.6054 C   0  0  0  0  0  0  0  0  0  0  0  0
    2.6597   -8.7525   16.1422 C   0  0  0  0  0  0  0  0  0  0  0  0
   10.7697   -3.6382   19.8893 C   0  0  0  0  0  0  0  0  0  0  0  0
    1.5848  -10.7455   17.7777 C   0  0  0  0  0  0  0  0  0  0  0  0
    5.6785   -7.4130   15.7047 C   0  0  0  0  0  0  0  0  0  0  0  0
  1 19  2  0
  2 24  4  0
  2 28  4  0
  3 19  1  0
  4 26  4  0
  4 33  4  0
  5 20  4  0
  5 27  4  0
  6 18  4  0
  6 21  4  0
  7 13  4  0
  7 25  4  0
  8 16  4  0
  8 17  4  0
  9 14  4  0
  9 17  4  0
 10 14  4  0
 10 32  4  0
 11 20  4  0
 11 29  4  0
 11 30  1  0
 12 18  4  0
 12 23  4  0
 12 33  4  0
 13 14  4  0
 13 24  4  0
 15 28  4  0
 15 34  4  0
 16 21  1  0
 16 34  4  0
 17 28  4  0
 19 32  1  0
 21 23  4  0
 22 27  4  0
 22 29  4  0
 23 31  4  0
 25 32  4  0
 26 31  4  0
 30 33  1  0
M  END
$$$$

 Created by Python create_sdf_string function

 34 39  0  0  0  0  0  0  0  0999 V2000
   11.7748   -2.4134   21.4869 O   0  0  0  0  0  0  0  0  0  0  0  0
    8.4571   -5.0280   15.5489 C   0  0  0  0  0  0  0  0  0  0  0  0
   10.6373   -4.1527   22.1338 O   0  0  0  0  0  0  0  0  0  0  0  0
    0.8865  -10.1736   16.8062 N   0  0  0  0  0  0  0  0  0  0  0  0
    0.6363  -11.5685   22.3514 C   0  0  0  0  0  0  0  0  0  0  0  0
    4.9382   -9.8865   18.4135 C   0  0  0  0  0  0  0  0  0  0  0  0
   10.8301   -3.1290   17.5832 C   0  0  0  0  0  0  0  0  0  0  0  0
    6.7438   -7.4973   17.7359 C   0  0  0  0  0  0  0  0  0  0  0  0
    8.5781   -5.9390   18.1797 N   0  0  0  0  0  0  0  0  0  0  0  0
    9.9427   -4.7068   19.6371 C   0  0  0  0  0  0  0  0  0  0  0  0
    0.4794  -11.4482   19.9323 C   0  0  0  0  0  0  0  0  0  0  0  0
    2.8970  -10.2853   17.8533 C   0  0  0  0  0  0  0  0  0  0  0  0
    9.9066   -4.1176   17.2835 C   0  0  0  0  0  0  0  0  0  0  0  0
    9.4685   -4.9581   18.3697 C   0  0  0  0  0  0  0  0  0  0  0  0
    6.5959   -6.5143   15.2606 C   0  0  0  0  0  0  0  0  0  0  0  0
    5.7287   -7.9676   16.9587 C   0  0  0  0  0  0  0  0  0  0  0  0
    7.6332   -6.5041   17.3535 C   0  0  0  0  0  0  0  0  0  0  0  0
    3.8550  -10.6808   18.6840 N   0  0  0  0  0  0  0  0  0  0  0  0
   11.0986   -3.3658   21.2207 C   0  0  0  0  0  0  0  0  0  0  0  0
    1.1160  -11.8135   21.0849 C   0  0  0  0  0  0  0  0  0  0  0  0
    4.7306   -8.9915   17.4326 C   0  0  0  0  0  0  0  0  0  0  0  0
   -1.3063  -10.5114   21.2530 C   0  0  0  0  0  0  0  0  0  0  0  0
    3.4124   -9.2810   17.0553 N   0  0  0  0  0  0  0  0  0  0  0  0
    9.4002   -4.2777   15.9890 C   0  0  0  0  0  0  0  0  0  0  0  0
   11.2565   -2.8190   18.8531 C   0  0  0  0  0  0  0  0  0  0  0  0
    1.3860   -9.2081   16.0076 C   0  0  0  0  0  0  0  0  0  0  0  0
   -0.6049  -10.8692   22.4441 C   0  0  0  0  0  0  0  0  0  0  0  0
    7.5780   -5.9951   16.0165 C   0  0  0  0  0  0  0  0  0  0  0  0
   -0.7359  -10.8450   20.0542 C   0  0  0  0  0  0  0  0  0  0  0  0
    1.0240  -11.7443   18.6054 C   0  0  0  0  0  0  0  0  0  0  0  0
    2.6597   -8.7525   16.1422 C   0  0  0  0  0  0  0  0  0  0  0  0
   10.7697   -3.6382   19.8893 C   0  0  0  0  0  0  0  0  0  0  0  0
    1.5848  -10.7455   17.7777 C   0  0  0  0  0  0  0  0  0  0  0  0
    5.6785   -7.4130   15.7047 C   0  0  0  0  0  0  0  0  0  0  0  0
  1 19  2  0
  2 24  4  0
  2 28  4  0
  3 19  1  0
  4 26  4  0
  4 33  4  0
  5 20  4  0
  5 27  4  0
  6 18  4  0
  6 21  4  0
  7 13  4  0
  7 25  4  0
  8 16  4  0
  8 17  4  0
  9 14  4  0
  9 17  4  0
 10 14  4  0
 10 32  4  0
 11 20  4  0
 11 29  4  0
 11 30  1  0
 12 18  4  0
 12 23  4  0
 12 33  4  0
 13 14  4  0
 13 24  4  0
 15 28  4  0
 15 34  4  0
 16 21  1  0
 16 34  4  0
 17 28  4  0
 19 32  1  0
 21 23  4  0
 22 27  4  0
 22 29  4  0
 23 31  4  0
 25 32  4  0
 26 31  4  0
 30 33  1  0
M  END
$$$$

 Created by Python create_sdf_string function

 34 39  0  0  0  0  0  0  0  0999 V2000
   11.7748   -2.4134   21.4869 O   0  0  0  0  0  0  0  0  0  0  0  0
    8.4571   -5.0280   15.5489 C   0  0  0  0  0  0  0  0  0  0  0  0
   10.6373   -4.1527   22.1338 O   0  0  0  0  0  0  0  0  0  0  0  0
    0.8865  -10.1736   16.8062 N   0  0  0  0  0  0  0  0  0  0  0  0
    0.6363  -11.5685   22.3514 C   0  0  0  0  0  0  0  0  0  0  0  0
    4.9382   -9.8865   18.4135 C   0  0  0  0  0  0  0  0  0  0  0  0
   10.8301   -3.1290   17.5832 C   0  0  0  0  0  0  0  0  0  0  0  0
    6.7438   -7.4973   17.7359 C   0  0  0  0  0  0  0  0  0  0  0  0
    8.5781   -5.9390   18.1797 N   0  0  0  0  0  0  0  0  0  0  0  0
    9.9427   -4.7068   19.6371 C   0  0  0  0  0  0  0  0  0  0  0  0
    0.4794  -11.4482   19.9323 C   0  0  0  0  0  0  0  0  0  0  0  0
    2.8970  -10.2853   17.8533 C   0  0  0  0  0  0  0  0  0  0  0  0
    9.9066   -4.1176   17.2835 C   0  0  0  0  0  0  0  0  0  0  0  0
    9.4685   -4.9581   18.3697 C   0  0  0  0  0  0  0  0  0  0  0  0
    6.5959   -6.5143   15.2606 C   0  0  0  0  0  0  0  0  0  0  0  0
    5.7287   -7.9676   16.9587 C   0  0  0  0  0  0  0  0  0  0  0  0
    7.6332   -6.5041   17.3535 C   0  0  0  0  0  0  0  0  0  0  0  0
    3.8550  -10.6808   18.6840 N   0  0  0  0  0  0  0  0  0  0  0  0
   11.0986   -3.3658   21.2207 C   0  0  0  0  0  0  0  0  0  0  0  0
    1.1160  -11.8135   21.0849 C   0  0  0  0  0  0  0  0  0  0  0  0
    4.7306   -8.9915   17.4326 C   0  0  0  0  0  0  0  0  0  0  0  0
   -1.3063  -10.5114   21.2530 C   0  0  0  0  0  0  0  0  0  0  0  0
    3.4124   -9.2810   17.0553 N   0  0  0  0  0  0  0  0  0  0  0  0
    9.4002   -4.2777   15.9890 C   0  0  0  0  0  0  0  0  0  0  0  0
   11.2565   -2.8190   18.8531 C   0  0  0  0  0  0  0  0  0  0  0  0
    1.3860   -9.2081   16.0076 C   0  0  0  0  0  0  0  0  0  0  0  0
   -0.6049  -10.8692   22.4441 C   0  0  0  0  0  0  0  0  0  0  0  0
    7.5780   -5.9951   16.0165 C   0  0  0  0  0  0  0  0  0  0  0  0
   -0.7359  -10.8450   20.0542 C   0  0  0  0  0  0  0  0  0  0  0  0
    1.0240  -11.7443   18.6054 C   0  0  0  0  0  0  0  0  0  0  0  0
    2.6597   -8.7525   16.1422 C   0  0  0  0  0  0  0  0  0  0  0  0
   10.7697   -3.6382   19.8893 C   0  0  0  0  0  0  0  0  0  0  0  0
    1.5848  -10.7455   17.7777 C   0  0  0  0  0  0  0  0  0  0  0  0
    5.6785   -7.4130   15.7047 C   0  0  0  0  0  0  0  0  0  0  0  0
  1 19  2  0
  2 24  4  0
  2 28  4  0
  3 19  1  0
  4 26  4  0
  4 33  4  0
  5 20  4  0
  5 27  4  0
  6 18  4  0
  6 21  4  0
  7 13  4  0
  7 25  4  0
  8 16  4  0
  8 17  4  0
  9 14  4  0
  9 17  4  0
 10 14  4  0
 10 32  4  0
 11 20  4  0
 11 29  4  0
 11 30  1  0
 12 18  4  0
 12 23  4  0
 12 33  4  0
 13 14  4  0
 13 24  4  0
 15 28  4  0
 15 34  4  0
 16 21  1  0
 16 34  4  0
 17 28  4  0
 19 32  1  0
 21 23  4  0
 22 27  4  0
 22 29  4  0
 23 31  4  0
 25 32  4  0
 26 31  4  0
 30 33  1  0
M  END
$$$$

 Created by Python create_sdf_string function

 34 39  0  0  0  0  0  0  0  0999 V2000
   11.7748   -2.4134   21.4869 O   0  0  0  0  0  0  0  0  0  0  0  0
    8.4571   -5.0280   15.5489 C   0  0  0  0  0  0  0  0  0  0  0  0
   10.6373   -4.1527   22.1338 O   0  0  0  0  0  0  0  0  0  0  0  0
    0.8865  -10.1736   16.8062 N   0  0  0  0  0  0  0  0  0  0  0  0
    0.6363  -11.5685   22.3514 C   0  0  0  0  0  0  0  0  0  0  0  0
    4.9382   -9.8865   18.4135 C   0  0  0  0  0  0  0  0  0  0  0  0
   10.8301   -3.1290   17.5832 C   0  0  0  0  0  0  0  0  0  0  0  0
    6.7438   -7.4973   17.7359 C   0  0  0  0  0  0  0  0  0  0  0  0
    8.5781   -5.9390   18.1797 N   0  0  0  0  0  0  0  0  0  0  0  0
    9.9427   -4.7068   19.6371 C   0  0  0  0  0  0  0  0  0  0  0  0
    0.4794  -11.4482   19.9323 C   0  0  0  0  0  0  0  0  0  0  0  0
    2.8970  -10.2853   17.8533 C   0  0  0  0  0  0  0  0  0  0  0  0
    9.9066   -4.1176   17.2835 C   0  0  0  0  0  0  0  0  0  0  0  0
    9.4685   -4.9581   18.3697 C   0  0  0  0  0  0  0  0  0  0  0  0
    6.5959   -6.5143   15.2606 C   0  0  0  0  0  0  0  0  0  0  0  0
    5.7287   -7.9676   16.9587 C   0  0  0  0  0  0  0  0  0  0  0  0
    7.6332   -6.5041   17.3535 C   0  0  0  0  0  0  0  0  0  0  0  0
    3.8550  -10.6808   18.6840 N   0  0  0  0  0  0  0  0  0  0  0  0
   11.0986   -3.3658   21.2207 C   0  0  0  0  0  0  0  0  0  0  0  0
    1.1160  -11.8135   21.0849 C   0  0  0  0  0  0  0  0  0  0  0  0
    4.7306   -8.9915   17.4326 C   0  0  0  0  0  0  0  0  0  0  0  0
   -1.3063  -10.5114   21.2530 C   0  0  0  0  0  0  0  0  0  0  0  0
    3.4124   -9.2810   17.0553 N   0  0  0  0  0  0  0  0  0  0  0  0
    9.4002   -4.2777   15.9890 C   0  0  0  0  0  0  0  0  0  0  0  0
   11.2565   -2.8190   18.8531 C   0  0  0  0  0  0  0  0  0  0  0  0
    1.3860   -9.2081   16.0076 C   0  0  0  0  0  0  0  0  0  0  0  0
   -0.6049  -10.8692   22.4441 C   0  0  0  0  0  0  0  0  0  0  0  0
    7.5780   -5.9951   16.0165 C   0  0  0  0  0  0  0  0  0  0  0  0
   -0.7359  -10.8450   20.0542 C   0  0  0  0  0  0  0  0  0  0  0  0
    1.0240  -11.7443   18.6054 C   0  0  0  0  0  0  0  0  0  0  0  0
    2.6597   -8.7525   16.1422 C   0  0  0  0  0  0  0  0  0  0  0  0
   10.7697   -3.6382   19.8893 C   0  0  0  0  0  0  0  0  0  0  0  0
    1.5848  -10.7455   17.7777 C   0  0  0  0  0  0  0  0  0  0  0  0
    5.6785   -7.4130   15.7047 C   0  0  0  0  0  0  0  0  0  0  0  0
  1 19  2  0
  2 24  4  0
  2 28  4  0
  3 19  1  0
  4 26  4  0
  4 33  4  0
  5 20  4  0
  5 27  4  0
  6 18  4  0
  6 21  4  0
  7 13  4  0
  7 25  4  0
  8 16  4  0
  8 17  4  0
  9 14  4  0
  9 17  4  0
 10 14  4  0
 10 32  4  0
 11 20  4  0
 11 29  4  0
 11 30  1  0
 12 18  4  0
 12 23  4  0
 12 33  4  0
 13 14  4  0
 13 24  4  0
 15 28  4  0
 15 34  4  0
 16 21  1  0
 16 34  4  0
 17 28  4  0
 19 32  1  0
 21 23  4  0
 22 27  4  0
 22 29  4  0
 23 31  4  0
 25 32  4  0
 26 31  4  0
 30 33  1  0
M  END
$$$$

 Created by Python create_sdf_string function

 34 39  0  0  0  0  0  0  0  0999 V2000
   11.7748   -2.4134   21.4869 O   0  0  0  0  0  0  0  0  0  0  0  0
    8.4571   -5.0280   15.5489 C   0  0  0  0  0  0  0  0  0  0  0  0
   10.6373   -4.1527   22.1338 O   0  0  0  0  0  0  0  0  0  0  0  0
    0.8865  -10.1736   16.8062 N   0  0  0  0  0  0  0  0  0  0  0  0
    0.6363  -11.5685   22.3514 C   0  0  0  0  0  0  0  0  0  0  0  0
    4.9382   -9.8865   18.4135 C   0  0  0  0  0  0  0  0  0  0  0  0
   10.8301   -3.1290   17.5832 C   0  0  0  0  0  0  0  0  0  0  0  0
    6.7438   -7.4973   17.7359 C   0  0  0  0  0  0  0  0  0  0  0  0
    8.5781   -5.9390   18.1797 N   0  0  0  0  0  0  0  0  0  0  0  0
    9.9427   -4.7068   19.6371 C   0  0  0  0  0  0  0  0  0  0  0  0
    0.4794  -11.4482   19.9323 C   0  0  0  0  0  0  0  0  0  0  0  0
    2.8970  -10.2853   17.8533 C   0  0  0  0  0  0  0  0  0  0  0  0
    9.9066   -4.1176   17.2835 C   0  0  0  0  0  0  0  0  0  0  0  0
    9.4685   -4.9581   18.3697 C   0  0  0  0  0  0  0  0  0  0  0  0
    6.5959   -6.5143   15.2606 C   0  0  0  0  0  0  0  0  0  0  0  0
    5.7287   -7.9676   16.9587 C   0  0  0  0  0  0  0  0  0  0  0  0
    7.6332   -6.5041   17.3535 C   0  0  0  0  0  0  0  0  0  0  0  0
    3.8550  -10.6808   18.6840 N   0  0  0  0  0  0  0  0  0  0  0  0
   11.0986   -3.3658   21.2207 C   0  0  0  0  0  0  0  0  0  0  0  0
    1.1160  -11.8135   21.0849 C   0  0  0  0  0  0  0  0  0  0  0  0
    4.7306   -8.9915   17.4326 C   0  0  0  0  0  0  0  0  0  0  0  0
   -1.3063  -10.5114   21.2530 C   0  0  0  0  0  0  0  0  0  0  0  0
    3.4124   -9.2810   17.0553 N   0  0  0  0  0  0  0  0  0  0  0  0
    9.4002   -4.2777   15.9890 C   0  0  0  0  0  0  0  0  0  0  0  0
   11.2565   -2.8190   18.8531 C   0  0  0  0  0  0  0  0  0  0  0  0
    1.3860   -9.2081   16.0076 C   0  0  0  0  0  0  0  0  0  0  0  0
   -0.6049  -10.8692   22.4441 C   0  0  0  0  0  0  0  0  0  0  0  0
    7.5780   -5.9951   16.0165 C   0  0  0  0  0  0  0  0  0  0  0  0
   -0.7359  -10.8450   20.0542 C   0  0  0  0  0  0  0  0  0  0  0  0
    1.0240  -11.7443   18.6054 C   0  0  0  0  0  0  0  0  0  0  0  0
    2.6597   -8.7525   16.1422 C   0  0  0  0  0  0  0  0  0  0  0  0
   10.7697   -3.6382   19.8893 C   0  0  0  0  0  0  0  0  0  0  0  0
    1.5848  -10.7455   17.7777 C   0  0  0  0  0  0  0  0  0  0  0  0
    5.6785   -7.4130   15.7047 C   0  0  0  0  0  0  0  0  0  0  0  0
  1 19  2  0
  2 24  4  0
  2 28  4  0
  3 19  1  0
  4 26  4  0
  4 33  4  0
  5 20  4  0
  5 27  4  0
  6 18  4  0
  6 21  4  0
  7 13  4  0
  7 25  4  0
  8 16  4  0
  8 17  4  0
  9 14  4  0
  9 17  4  0
 10 14  4  0
 10 32  4  0
 11 20  4  0
 11 29  4  0
 11 30  1  0
 12 18  4  0
 12 23  4  0
 12 33  4  0
 13 14  4  0
 13 24  4  0
 15 28  4  0
 15 34  4  0
 16 21  1  0
 16 34  4  0
 17 28  4  0
 19 32  1  0
 21 23  4  0
 22 27  4  0
 22 29  4  0
 23 31  4  0
 25 32  4  0
 26 31  4  0
 30 33  1  0
M  END
$$$$

 Created by Python create_sdf_string function

 34 39  0  0  0  0  0  0  0  0999 V2000
   11.7748   -2.4134   21.4869 O   0  0  0  0  0  0  0  0  0  0  0  0
    8.4571   -5.0280   15.5489 C   0  0  0  0  0  0  0  0  0  0  0  0
   10.6373   -4.1527   22.1338 O   0  0  0  0  0  0  0  0  0  0  0  0
    0.8865  -10.1736   16.8062 N   0  0  0  0  0  0  0  0  0  0  0  0
    0.6363  -11.5685   22.3514 C   0  0  0  0  0  0  0  0  0  0  0  0
    4.9382   -9.8865   18.4135 C   0  0  0  0  0  0  0  0  0  0  0  0
   10.8301   -3.1290   17.5832 C   0  0  0  0  0  0  0  0  0  0  0  0
    6.7438   -7.4973   17.7359 C   0  0  0  0  0  0  0  0  0  0  0  0
    8.5781   -5.9390   18.1797 N   0  0  0  0  0  0  0  0  0  0  0  0
    9.9427   -4.7068   19.6371 C   0  0  0  0  0  0  0  0  0  0  0  0
    0.4794  -11.4482   19.9323 C   0  0  0  0  0  0  0  0  0  0  0  0
    2.8970  -10.2853   17.8533 C   0  0  0  0  0  0  0  0  0  0  0  0
    9.9066   -4.1176   17.2835 C   0  0  0  0  0  0  0  0  0  0  0  0
    9.4685   -4.9581   18.3697 C   0  0  0  0  0  0  0  0  0  0  0  0
    6.5959   -6.5143   15.2606 C   0  0  0  0  0  0  0  0  0  0  0  0
    5.7287   -7.9676   16.9587 C   0  0  0  0  0  0  0  0  0  0  0  0
    7.6332   -6.5041   17.3535 C   0  0  0  0  0  0  0  0  0  0  0  0
    3.8550  -10.6808   18.6840 N   0  0  0  0  0  0  0  0  0  0  0  0
   11.0986   -3.3658   21.2207 C   0  0  0  0  0  0  0  0  0  0  0  0
    1.1160  -11.8135   21.0849 C   0  0  0  0  0  0  0  0  0  0  0  0
    4.7306   -8.9915   17.4326 C   0  0  0  0  0  0  0  0  0  0  0  0
   -1.3063  -10.5114   21.2530 C   0  0  0  0  0  0  0  0  0  0  0  0
    3.4124   -9.2810   17.0553 N   0  0  0  0  0  0  0  0  0  0  0  0
    9.4002   -4.2777   15.9890 C   0  0  0  0  0  0  0  0  0  0  0  0
   11.2565   -2.8190   18.8531 C   0  0  0  0  0  0  0  0  0  0  0  0
    1.3860   -9.2081   16.0076 C   0  0  0  0  0  0  0  0  0  0  0  0
   -0.6049  -10.8692   22.4441 C   0  0  0  0  0  0  0  0  0  0  0  0
    7.5780   -5.9951   16.0165 C   0  0  0  0  0  0  0  0  0  0  0  0
   -0.7359  -10.8450   20.0542 C   0  0  0  0  0  0  0  0  0  0  0  0
    1.0240  -11.7443   18.6054 C   0  0  0  0  0  0  0  0  0  0  0  0
    2.6597   -8.7525   16.1422 C   0  0  0  0  0  0  0  0  0  0  0  0
   10.7697   -3.6382   19.8893 C   0  0  0  0  0  0  0  0  0  0  0  0
    1.5848  -10.7455   17.7777 C   0  0  0  0  0  0  0  0  0  0  0  0
    5.6785   -7.4130   15.7047 C   0  0  0  0  0  0  0  0  0  0  0  0
  1 19  2  0
  2 24  4  0
  2 28  4  0
  3 19  1  0
  4 26  4  0
  4 33  4  0
  5 20  4  0
  5 27  4  0
  6 18  4  0
  6 21  4  0
  7 13  4  0
  7 25  4  0
  8 16  4  0
  8 17  4  0
  9 14  4  0
  9 17  4  0
 10 14  4  0
 10 32  4  0
 11 20  4  0
 11 29  4  0
 11 30  1  0
 12 18  4  0
 12 23  4  0
 12 33  4  0
 13 14  4  0
 13 24  4  0
 15 28  4  0
 15 34  4  0
 16 21  1  0
 16 34  4  0
 17 28  4  0
 19 32  1  0
 21 23  4  0
 22 27  4  0
 22 29  4  0
 23 31  4  0
 25 32  4  0
 26 31  4  0
 30 33  1  0
M  END
$$$$

 Created by Python create_sdf_string function

 34 39  0  0  0  0  0  0  0  0999 V2000
   11.7748   -2.4134   21.4869 O   0  0  0  0  0  0  0  0  0  0  0  0
    8.4571   -5.0280   15.5489 C   0  0  0  0  0  0  0  0  0  0  0  0
   10.6373   -4.1527   22.1338 O   0  0  0  0  0  0  0  0  0  0  0  0
    0.8865  -10.1736   16.8062 N   0  0  0  0  0  0  0  0  0  0  0  0
    0.6363  -11.5685   22.3514 C   0  0  0  0  0  0  0  0  0  0  0  0
    4.9382   -9.8865   18.4135 C   0  0  0  0  0  0  0  0  0  0  0  0
   10.8301   -3.1290   17.5832 C   0  0  0  0  0  0  0  0  0  0  0  0
    6.7438   -7.4973   17.7359 C   0  0  0  0  0  0  0  0  0  0  0  0
    8.5781   -5.9390   18.1797 N   0  0  0  0  0  0  0  0  0  0  0  0
    9.9427   -4.7068   19.6371 C   0  0  0  0  0  0  0  0  0  0  0  0
    0.4794  -11.4482   19.9323 C   0  0  0  0  0  0  0  0  0  0  0  0
    2.8970  -10.2853   17.8533 C   0  0  0  0  0  0  0  0  0  0  0  0
    9.9066   -4.1176   17.2835 C   0  0  0  0  0  0  0  0  0  0  0  0
    9.4685   -4.9581   18.3697 C   0  0  0  0  0  0  0  0  0  0  0  0
    6.5959   -6.5143   15.2606 C   0  0  0  0  0  0  0  0  0  0  0  0
    5.7287   -7.9676   16.9587 C   0  0  0  0  0  0  0  0  0  0  0  0
    7.6332   -6.5041   17.3535 C   0  0  0  0  0  0  0  0  0  0  0  0
    3.8550  -10.6808   18.6840 N   0  0  0  0  0  0  0  0  0  0  0  0
   11.0986   -3.3658   21.2207 C   0  0  0  0  0  0  0  0  0  0  0  0
    1.1160  -11.8135   21.0849 C   0  0  0  0  0  0  0  0  0  0  0  0
    4.7306   -8.9915   17.4326 C   0  0  0  0  0  0  0  0  0  0  0  0
   -1.3063  -10.5114   21.2530 C   0  0  0  0  0  0  0  0  0  0  0  0
    3.4124   -9.2810   17.0553 N   0  0  0  0  0  0  0  0  0  0  0  0
    9.4002   -4.2777   15.9890 C   0  0  0  0  0  0  0  0  0  0  0  0
   11.2565   -2.8190   18.8531 C   0  0  0  0  0  0  0  0  0  0  0  0
    1.3860   -9.2081   16.0076 C   0  0  0  0  0  0  0  0  0  0  0  0
   -0.6049  -10.8692   22.4441 C   0  0  0  0  0  0  0  0  0  0  0  0
    7.5780   -5.9951   16.0165 C   0  0  0  0  0  0  0  0  0  0  0  0
   -0.7359  -10.8450   20.0542 C   0  0  0  0  0  0  0  0  0  0  0  0
    1.0240  -11.7443   18.6054 C   0  0  0  0  0  0  0  0  0  0  0  0
    2.6597   -8.7525   16.1422 C   0  0  0  0  0  0  0  0  0  0  0  0
   10.7697   -3.6382   19.8893 C   0  0  0  0  0  0  0  0  0  0  0  0
    1.5848  -10.7455   17.7777 C   0  0  0  0  0  0  0  0  0  0  0  0
    5.6785   -7.4130   15.7047 C   0  0  0  0  0  0  0  0  0  0  0  0
  1 19  2  0
  2 24  4  0
  2 28  4  0
  3 19  1  0
  4 26  4  0
  4 33  4  0
  5 20  4  0
  5 27  4  0
  6 18  4  0
  6 21  4  0
  7 13  4  0
  7 25  4  0
  8 16  4  0
  8 17  4  0
  9 14  4  0
  9 17  4  0
 10 14  4  0
 10 32  4  0
 11 20  4  0
 11 29  4  0
 11 30  1  0
 12 18  4  0
 12 23  4  0
 12 33  4  0
 13 14  4  0
 13 24  4  0
 15 28  4  0
 15 34  4  0
 16 21  1  0
 16 34  4  0
 17 28  4  0
 19 32  1  0
 21 23  4  0
 22 27  4  0
 22 29  4  0
 23 31  4  0
 25 32  4  0
 26 31  4  0
 30 33  1  0
M  END
$$$$

 Created by Python create_sdf_string function

 34 39  0  0  0  0  0  0  0  0999 V2000
   11.7748   -2.4134   21.4869 O   0  0  0  0  0  0  0  0  0  0  0  0
    8.4571   -5.0280   15.5489 C   0  0  0  0  0  0  0  0  0  0  0  0
   10.6373   -4.1527   22.1338 O   0  0  0  0  0  0  0  0  0  0  0  0
    0.8865  -10.1736   16.8062 N   0  0  0  0  0  0  0  0  0  0  0  0
    0.6363  -11.5685   22.3514 C   0  0  0  0  0  0  0  0  0  0  0  0
    4.9382   -9.8865   18.4135 C   0  0  0  0  0  0  0  0  0  0  0  0
   10.8301   -3.1290   17.5832 C   0  0  0  0  0  0  0  0  0  0  0  0
    6.7438   -7.4973   17.7359 C   0  0  0  0  0  0  0  0  0  0  0  0
    8.5781   -5.9390   18.1797 N   0  0  0  0  0  0  0  0  0  0  0  0
    9.9427   -4.7068   19.6371 C   0  0  0  0  0  0  0  0  0  0  0  0
    0.4794  -11.4482   19.9323 C   0  0  0  0  0  0  0  0  0  0  0  0
    2.8970  -10.2853   17.8533 C   0  0  0  0  0  0  0  0  0  0  0  0
    9.9066   -4.1176   17.2835 C   0  0  0  0  0  0  0  0  0  0  0  0
    9.4685   -4.9581   18.3697 C   0  0  0  0  0  0  0  0  0  0  0  0
    6.5959   -6.5143   15.2606 C   0  0  0  0  0  0  0  0  0  0  0  0
    5.7287   -7.9676   16.9587 C   0  0  0  0  0  0  0  0  0  0  0  0
    7.6332   -6.5041   17.3535 C   0  0  0  0  0  0  0  0  0  0  0  0
    3.8550  -10.6808   18.6840 N   0  0  0  0  0  0  0  0  0  0  0  0
   11.0986   -3.3658   21.2207 C   0  0  0  0  0  0  0  0  0  0  0  0
    1.1160  -11.8135   21.0849 C   0  0  0  0  0  0  0  0  0  0  0  0
    4.7306   -8.9915   17.4326 C   0  0  0  0  0  0  0  0  0  0  0  0
   -1.3063  -10.5114   21.2530 C   0  0  0  0  0  0  0  0  0  0  0  0
    3.4124   -9.2810   17.0553 N   0  0  0  0  0  0  0  0  0  0  0  0
    9.4002   -4.2777   15.9890 C   0  0  0  0  0  0  0  0  0  0  0  0
   11.2565   -2.8190   18.8531 C   0  0  0  0  0  0  0  0  0  0  0  0
    1.3860   -9.2081   16.0076 C   0  0  0  0  0  0  0  0  0  0  0  0
   -0.6049  -10.8692   22.4441 C   0  0  0  0  0  0  0  0  0  0  0  0
    7.5780   -5.9951   16.0165 C   0  0  0  0  0  0  0  0  0  0  0  0
   -0.7359  -10.8450   20.0542 C   0  0  0  0  0  0  0  0  0  0  0  0
    1.0240  -11.7443   18.6054 C   0  0  0  0  0  0  0  0  0  0  0  0
    2.6597   -8.7525   16.1422 C   0  0  0  0  0  0  0  0  0  0  0  0
   10.7697   -3.6382   19.8893 C   0  0  0  0  0  0  0  0  0  0  0  0
    1.5848  -10.7455   17.7777 C   0  0  0  0  0  0  0  0  0  0  0  0
    5.6785   -7.4130   15.7047 C   0  0  0  0  0  0  0  0  0  0  0  0
  1 19  2  0
  2 24  4  0
  2 28  4  0
  3 19  1  0
  4 26  4  0
  4 33  4  0
  5 20  4  0
  5 27  4  0
  6 18  4  0
  6 21  4  0
  7 13  4  0
  7 25  4  0
  8 16  4  0
  8 17  4  0
  9 14  4  0
  9 17  4  0
 10 14  4  0
 10 32  4  0
 11 20  4  0
 11 29  4  0
 11 30  1  0
 12 18  4  0
 12 23  4  0
 12 33  4  0
 13 14  4  0
 13 24  4  0
 15 28  4  0
 15 34  4  0
 16 21  1  0
 16 34  4  0
 17 28  4  0
 19 32  1  0
 21 23  4  0
 22 27  4  0
 22 29  4  0
 23 31  4  0
 25 32  4  0
 26 31  4  0
 30 33  1  0
M  END
$$$$

 Created by Python create_sdf_string function

 34 39  0  0  0  0  0  0  0  0999 V2000
   11.7748   -2.4134   21.4869 O   0  0  0  0  0  0  0  0  0  0  0  0
    8.4571   -5.0280   15.5489 C   0  0  0  0  0  0  0  0  0  0  0  0
   10.6373   -4.1527   22.1338 O   0  0  0  0  0  0  0  0  0  0  0  0
    0.8865  -10.1736   16.8062 N   0  0  0  0  0  0  0  0  0  0  0  0
    0.6363  -11.5685   22.3514 C   0  0  0  0  0  0  0  0  0  0  0  0
    4.9382   -9.8865   18.4135 C   0  0  0  0  0  0  0  0  0  0  0  0
   10.8301   -3.1290   17.5832 C   0  0  0  0  0  0  0  0  0  0  0  0
    6.7438   -7.4973   17.7359 C   0  0  0  0  0  0  0  0  0  0  0  0
    8.5781   -5.9390   18.1797 N   0  0  0  0  0  0  0  0  0  0  0  0
    9.9427   -4.7068   19.6371 C   0  0  0  0  0  0  0  0  0  0  0  0
    0.4794  -11.4482   19.9323 C   0  0  0  0  0  0  0  0  0  0  0  0
    2.8970  -10.2853   17.8533 C   0  0  0  0  0  0  0  0  0  0  0  0
    9.9066   -4.1176   17.2835 C   0  0  0  0  0  0  0  0  0  0  0  0
    9.4685   -4.9581   18.3697 C   0  0  0  0  0  0  0  0  0  0  0  0
    6.5959   -6.5143   15.2606 C   0  0  0  0  0  0  0  0  0  0  0  0
    5.7287   -7.9676   16.9587 C   0  0  0  0  0  0  0  0  0  0  0  0
    7.6332   -6.5041   17.3535 C   0  0  0  0  0  0  0  0  0  0  0  0
    3.8550  -10.6808   18.6840 N   0  0  0  0  0  0  0  0  0  0  0  0
   11.0986   -3.3658   21.2207 C   0  0  0  0  0  0  0  0  0  0  0  0
    1.1160  -11.8135   21.0849 C   0  0  0  0  0  0  0  0  0  0  0  0
    4.7306   -8.9915   17.4326 C   0  0  0  0  0  0  0  0  0  0  0  0
   -1.3063  -10.5114   21.2530 C   0  0  0  0  0  0  0  0  0  0  0  0
    3.4124   -9.2810   17.0553 N   0  0  0  0  0  0  0  0  0  0  0  0
    9.4002   -4.2777   15.9890 C   0  0  0  0  0  0  0  0  0  0  0  0
   11.2565   -2.8190   18.8531 C   0  0  0  0  0  0  0  0  0  0  0  0
    1.3860   -9.2081   16.0076 C   0  0  0  0  0  0  0  0  0  0  0  0
   -0.6049  -10.8692   22.4441 C   0  0  0  0  0  0  0  0  0  0  0  0
    7.5780   -5.9951   16.0165 C   0  0  0  0  0  0  0  0  0  0  0  0
   -0.7359  -10.8450   20.0542 C   0  0  0  0  0  0  0  0  0  0  0  0
    1.0240  -11.7443   18.6054 C   0  0  0  0  0  0  0  0  0  0  0  0
    2.6597   -8.7525   16.1422 C   0  0  0  0  0  0  0  0  0  0  0  0
   10.7697   -3.6382   19.8893 C   0  0  0  0  0  0  0  0  0  0  0  0
    1.5848  -10.7455   17.7777 C   0  0  0  0  0  0  0  0  0  0  0  0
    5.6785   -7.4130   15.7047 C   0  0  0  0  0  0  0  0  0  0  0  0
  1 19  2  0
  2 24  4  0
  2 28  4  0
  3 19  1  0
  4 26  4  0
  4 33  4  0
  5 20  4  0
  5 27  4  0
  6 18  4  0
  6 21  4  0
  7 13  4  0
  7 25  4  0
  8 16  4  0
  8 17  4  0
  9 14  4  0
  9 17  4  0
 10 14  4  0
 10 32  4  0
 11 20  4  0
 11 29  4  0
 11 30  1  0
 12 18  4  0
 12 23  4  0
 12 33  4  0
 13 14  4  0
 13 24  4  0
 15 28  4  0
 15 34  4  0
 16 21  1  0
 16 34  4  0
 17 28  4  0
 19 32  1  0
 21 23  4  0
 22 27  4  0
 22 29  4  0
 23 31  4  0
 25 32  4  0
 26 31  4  0
 30 33  1  0
M  END
$$$$

 Created by Python create_sdf_string function

 34 39  0  0  0  0  0  0  0  0999 V2000
   11.7748   -2.4134   21.4869 O   0  0  0  0  0  0  0  0  0  0  0  0
    8.4571   -5.0280   15.5489 C   0  0  0  0  0  0  0  0  0  0  0  0
   10.6373   -4.1527   22.1338 O   0  0  0  0  0  0  0  0  0  0  0  0
    0.8865  -10.1736   16.8062 N   0  0  0  0  0  0  0  0  0  0  0  0
    0.6363  -11.5685   22.3514 C   0  0  0  0  0  0  0  0  0  0  0  0
    4.9382   -9.8865   18.4135 C   0  0  0  0  0  0  0  0  0  0  0  0
   10.8301   -3.1290   17.5832 C   0  0  0  0  0  0  0  0  0  0  0  0
    6.7438   -7.4973   17.7359 C   0  0  0  0  0  0  0  0  0  0  0  0
    8.5781   -5.9390   18.1797 N   0  0  0  0  0  0  0  0  0  0  0  0
    9.9427   -4.7068   19.6371 C   0  0  0  0  0  0  0  0  0  0  0  0
    0.4794  -11.4482   19.9323 C   0  0  0  0  0  0  0  0  0  0  0  0
    2.8970  -10.2853   17.8533 C   0  0  0  0  0  0  0  0  0  0  0  0
    9.9066   -4.1176   17.2835 C   0  0  0  0  0  0  0  0  0  0  0  0
    9.4685   -4.9581   18.3697 C   0  0  0  0  0  0  0  0  0  0  0  0
    6.5959   -6.5143   15.2606 C   0  0  0  0  0  0  0  0  0  0  0  0
    5.7287   -7.9676   16.9587 C   0  0  0  0  0  0  0  0  0  0  0  0
    7.6332   -6.5041   17.3535 C   0  0  0  0  0  0  0  0  0  0  0  0
    3.8550  -10.6808   18.6840 N   0  0  0  0  0  0  0  0  0  0  0  0
   11.0986   -3.3658   21.2207 C   0  0  0  0  0  0  0  0  0  0  0  0
    1.1160  -11.8135   21.0849 C   0  0  0  0  0  0  0  0  0  0  0  0
    4.7306   -8.9915   17.4326 C   0  0  0  0  0  0  0  0  0  0  0  0
   -1.3063  -10.5114   21.2530 C   0  0  0  0  0  0  0  0  0  0  0  0
    3.4124   -9.2810   17.0553 N   0  0  0  0  0  0  0  0  0  0  0  0
    9.4002   -4.2777   15.9890 C   0  0  0  0  0  0  0  0  0  0  0  0
   11.2565   -2.8190   18.8531 C   0  0  0  0  0  0  0  0  0  0  0  0
    1.3860   -9.2081   16.0076 C   0  0  0  0  0  0  0  0  0  0  0  0
   -0.6049  -10.8692   22.4441 C   0  0  0  0  0  0  0  0  0  0  0  0
    7.5780   -5.9951   16.0165 C   0  0  0  0  0  0  0  0  0  0  0  0
   -0.7359  -10.8450   20.0542 C   0  0  0  0  0  0  0  0  0  0  0  0
    1.0240  -11.7443   18.6054 C   0  0  0  0  0  0  0  0  0  0  0  0
    2.6597   -8.7525   16.1422 C   0  0  0  0  0  0  0  0  0  0  0  0
   10.7697   -3.6382   19.8893 C   0  0  0  0  0  0  0  0  0  0  0  0
    1.5848  -10.7455   17.7777 C   0  0  0  0  0  0  0  0  0  0  0  0
    5.6785   -7.4130   15.7047 C   0  0  0  0  0  0  0  0  0  0  0  0
  1 19  2  0
  2 24  4  0
  2 28  4  0
  3 19  1  0
  4 26  4  0
  4 33  4  0
  5 20  4  0
  5 27  4  0
  6 18  4  0
  6 21  4  0
  7 13  4  0
  7 25  4  0
  8 16  4  0
  8 17  4  0
  9 14  4  0
  9 17  4  0
 10 14  4  0
 10 32  4  0
 11 20  4  0
 11 29  4  0
 11 30  1  0
 12 18  4  0
 12 23  4  0
 12 33  4  0
 13 14  4  0
 13 24  4  0
 15 28  4  0
 15 34  4  0
 16 21  1  0
 16 34  4  0
 17 28  4  0
 19 32  1  0
 21 23  4  0
 22 27  4  0
 22 29  4  0
 23 31  4  0
 25 32  4  0
 26 31  4  0
 30 33  1  0
M  END
$$$$

 Created by Python create_sdf_string function

 34 39  0  0  0  0  0  0  0  0999 V2000
   11.7748   -2.4134   21.4869 O   0  0  0  0  0  0  0  0  0  0  0  0
    8.4571   -5.0280   15.5489 C   0  0  0  0  0  0  0  0  0  0  0  0
   10.6373   -4.1527   22.1338 O   0  0  0  0  0  0  0  0  0  0  0  0
    0.8865  -10.1736   16.8062 N   0  0  0  0  0  0  0  0  0  0  0  0
    0.6363  -11.5685   22.3514 C   0  0  0  0  0  0  0  0  0  0  0  0
    4.9382   -9.8865   18.4135 C   0  0  0  0  0  0  0  0  0  0  0  0
   10.8301   -3.1290   17.5832 C   0  0  0  0  0  0  0  0  0  0  0  0
    6.7438   -7.4973   17.7359 C   0  0  0  0  0  0  0  0  0  0  0  0
    8.5781   -5.9390   18.1797 N   0  0  0  0  0  0  0  0  0  0  0  0
    9.9427   -4.7068   19.6371 C   0  0  0  0  0  0  0  0  0  0  0  0
    0.4794  -11.4482   19.9323 C   0  0  0  0  0  0  0  0  0  0  0  0
    2.8970  -10.2853   17.8533 C   0  0  0  0  0  0  0  0  0  0  0  0
    9.9066   -4.1176   17.2835 C   0  0  0  0  0  0  0  0  0  0  0  0
    9.4685   -4.9581   18.3697 C   0  0  0  0  0  0  0  0  0  0  0  0
    6.5959   -6.5143   15.2606 C   0  0  0  0  0  0  0  0  0  0  0  0
    5.7287   -7.9676   16.9587 C   0  0  0  0  0  0  0  0  0  0  0  0
    7.6332   -6.5041   17.3535 C   0  0  0  0  0  0  0  0  0  0  0  0
    3.8550  -10.6808   18.6840 N   0  0  0  0  0  0  0  0  0  0  0  0
   11.0986   -3.3658   21.2207 C   0  0  0  0  0  0  0  0  0  0  0  0
    1.1160  -11.8135   21.0849 C   0  0  0  0  0  0  0  0  0  0  0  0
    4.7306   -8.9915   17.4326 C   0  0  0  0  0  0  0  0  0  0  0  0
   -1.3063  -10.5114   21.2530 C   0  0  0  0  0  0  0  0  0  0  0  0
    3.4124   -9.2810   17.0553 N   0  0  0  0  0  0  0  0  0  0  0  0
    9.4002   -4.2777   15.9890 C   0  0  0  0  0  0  0  0  0  0  0  0
   11.2565   -2.8190   18.8531 C   0  0  0  0  0  0  0  0  0  0  0  0
    1.3860   -9.2081   16.0076 C   0  0  0  0  0  0  0  0  0  0  0  0
   -0.6049  -10.8692   22.4441 C   0  0  0  0  0  0  0  0  0  0  0  0
    7.5780   -5.9951   16.0165 C   0  0  0  0  0  0  0  0  0  0  0  0
   -0.7359  -10.8450   20.0542 C   0  0  0  0  0  0  0  0  0  0  0  0
    1.0240  -11.7443   18.6054 C   0  0  0  0  0  0  0  0  0  0  0  0
    2.6597   -8.7525   16.1422 C   0  0  0  0  0  0  0  0  0  0  0  0
   10.7697   -3.6382   19.8893 C   0  0  0  0  0  0  0  0  0  0  0  0
    1.5848  -10.7455   17.7777 C   0  0  0  0  0  0  0  0  0  0  0  0
    5.6785   -7.4130   15.7047 C   0  0  0  0  0  0  0  0  0  0  0  0
  1 19  2  0
  2 24  4  0
  2 28  4  0
  3 19  1  0
  4 26  4  0
  4 33  4  0
  5 20  4  0
  5 27  4  0
  6 18  4  0
  6 21  4  0
  7 13  4  0
  7 25  4  0
  8 16  4  0
  8 17  4  0
  9 14  4  0
  9 17  4  0
 10 14  4  0
 10 32  4  0
 11 20  4  0
 11 29  4  0
 11 30  1  0
 12 18  4  0
 12 23  4  0
 12 33  4  0
 13 14  4  0
 13 24  4  0
 15 28  4  0
 15 34  4  0
 16 21  1  0
 16 34  4  0
 17 28  4  0
 19 32  1  0
 21 23  4  0
 22 27  4  0
 22 29  4  0
 23 31  4  0
 25 32  4  0
 26 31  4  0
 30 33  1  0
M  END
$$$$

 Created by Python create_sdf_string function

 34 39  0  0  0  0  0  0  0  0999 V2000
   11.7748   -2.4134   21.4869 O   0  0  0  0  0  0  0  0  0  0  0  0
    8.4571   -5.0280   15.5489 C   0  0  0  0  0  0  0  0  0  0  0  0
   10.6373   -4.1527   22.1338 O   0  0  0  0  0  0  0  0  0  0  0  0
    0.8865  -10.1736   16.8062 N   0  0  0  0  0  0  0  0  0  0  0  0
    0.6363  -11.5685   22.3514 C   0  0  0  0  0  0  0  0  0  0  0  0
    4.9382   -9.8865   18.4135 C   0  0  0  0  0  0  0  0  0  0  0  0
   10.8301   -3.1290   17.5832 C   0  0  0  0  0  0  0  0  0  0  0  0
    6.7438   -7.4973   17.7359 C   0  0  0  0  0  0  0  0  0  0  0  0
    8.5781   -5.9390   18.1797 N   0  0  0  0  0  0  0  0  0  0  0  0
    9.9427   -4.7068   19.6371 C   0  0  0  0  0  0  0  0  0  0  0  0
    0.4794  -11.4482   19.9323 C   0  0  0  0  0  0  0  0  0  0  0  0
    2.8970  -10.2853   17.8533 C   0  0  0  0  0  0  0  0  0  0  0  0
    9.9066   -4.1176   17.2835 C   0  0  0  0  0  0  0  0  0  0  0  0
    9.4685   -4.9581   18.3697 C   0  0  0  0  0  0  0  0  0  0  0  0
    6.5959   -6.5143   15.2606 C   0  0  0  0  0  0  0  0  0  0  0  0
    5.7287   -7.9676   16.9587 C   0  0  0  0  0  0  0  0  0  0  0  0
    7.6332   -6.5041   17.3535 C   0  0  0  0  0  0  0  0  0  0  0  0
    3.8550  -10.6808   18.6840 N   0  0  0  0  0  0  0  0  0  0  0  0
   11.0986   -3.3658   21.2207 C   0  0  0  0  0  0  0  0  0  0  0  0
    1.1160  -11.8135   21.0849 C   0  0  0  0  0  0  0  0  0  0  0  0
    4.7306   -8.9915   17.4326 C   0  0  0  0  0  0  0  0  0  0  0  0
   -1.3063  -10.5114   21.2530 C   0  0  0  0  0  0  0  0  0  0  0  0
    3.4124   -9.2810   17.0553 N   0  0  0  0  0  0  0  0  0  0  0  0
    9.4002   -4.2777   15.9890 C   0  0  0  0  0  0  0  0  0  0  0  0
   11.2565   -2.8190   18.8531 C   0  0  0  0  0  0  0  0  0  0  0  0
    1.3860   -9.2081   16.0076 C   0  0  0  0  0  0  0  0  0  0  0  0
   -0.6049  -10.8692   22.4441 C   0  0  0  0  0  0  0  0  0  0  0  0
    7.5780   -5.9951   16.0165 C   0  0  0  0  0  0  0  0  0  0  0  0
   -0.7359  -10.8450   20.0542 C   0  0  0  0  0  0  0  0  0  0  0  0
    1.0240  -11.7443   18.6054 C   0  0  0  0  0  0  0  0  0  0  0  0
    2.6597   -8.7525   16.1422 C   0  0  0  0  0  0  0  0  0  0  0  0
   10.7697   -3.6382   19.8893 C   0  0  0  0  0  0  0  0  0  0  0  0
    1.5848  -10.7455   17.7777 C   0  0  0  0  0  0  0  0  0  0  0  0
    5.6785   -7.4130   15.7047 C   0  0  0  0  0  0  0  0  0  0  0  0
  1 19  2  0
  2 24  4  0
  2 28  4  0
  3 19  1  0
  4 26  4  0
  4 33  4  0
  5 20  4  0
  5 27  4  0
  6 18  4  0
  6 21  4  0
  7 13  4  0
  7 25  4  0
  8 16  4  0
  8 17  4  0
  9 14  4  0
  9 17  4  0
 10 14  4  0
 10 32  4  0
 11 20  4  0
 11 29  4  0
 11 30  1  0
 12 18  4  0
 12 23  4  0
 12 33  4  0
 13 14  4  0
 13 24  4  0
 15 28  4  0
 15 34  4  0
 16 21  1  0
 16 34  4  0
 17 28  4  0
 19 32  1  0
 21 23  4  0
 22 27  4  0
 22 29  4  0
 23 31  4  0
 25 32  4  0
 26 31  4  0
 30 33  1  0
M  END
$$$$

 Created by Python create_sdf_string function

 34 39  0  0  0  0  0  0  0  0999 V2000
   11.7748   -2.4134   21.4869 O   0  0  0  0  0  0  0  0  0  0  0  0
    8.4571   -5.0280   15.5489 C   0  0  0  0  0  0  0  0  0  0  0  0
   10.6373   -4.1527   22.1338 O   0  0  0  0  0  0  0  0  0  0  0  0
    0.8865  -10.1736   16.8062 N   0  0  0  0  0  0  0  0  0  0  0  0
    0.6363  -11.5685   22.3514 C   0  0  0  0  0  0  0  0  0  0  0  0
    4.9382   -9.8865   18.4135 C   0  0  0  0  0  0  0  0  0  0  0  0
   10.8301   -3.1290   17.5832 C   0  0  0  0  0  0  0  0  0  0  0  0
    6.7438   -7.4973   17.7359 C   0  0  0  0  0  0  0  0  0  0  0  0
    8.5781   -5.9390   18.1797 N   0  0  0  0  0  0  0  0  0  0  0  0
    9.9427   -4.7068   19.6371 C   0  0  0  0  0  0  0  0  0  0  0  0
    0.4794  -11.4482   19.9323 C   0  0  0  0  0  0  0  0  0  0  0  0
    2.8970  -10.2853   17.8533 C   0  0  0  0  0  0  0  0  0  0  0  0
    9.9066   -4.1176   17.2835 C   0  0  0  0  0  0  0  0  0  0  0  0
    9.4685   -4.9581   18.3697 C   0  0  0  0  0  0  0  0  0  0  0  0
    6.5959   -6.5143   15.2606 C   0  0  0  0  0  0  0  0  0  0  0  0
    5.7287   -7.9676   16.9587 C   0  0  0  0  0  0  0  0  0  0  0  0
    7.6332   -6.5041   17.3535 C   0  0  0  0  0  0  0  0  0  0  0  0
    3.8550  -10.6808   18.6840 N   0  0  0  0  0  0  0  0  0  0  0  0
   11.0986   -3.3658   21.2207 C   0  0  0  0  0  0  0  0  0  0  0  0
    1.1160  -11.8135   21.0849 C   0  0  0  0  0  0  0  0  0  0  0  0
    4.7306   -8.9915   17.4326 C   0  0  0  0  0  0  0  0  0  0  0  0
   -1.3063  -10.5114   21.2530 C   0  0  0  0  0  0  0  0  0  0  0  0
    3.4124   -9.2810   17.0553 N   0  0  0  0  0  0  0  0  0  0  0  0
    9.4002   -4.2777   15.9890 C   0  0  0  0  0  0  0  0  0  0  0  0
   11.2565   -2.8190   18.8531 C   0  0  0  0  0  0  0  0  0  0  0  0
    1.3860   -9.2081   16.0076 C   0  0  0  0  0  0  0  0  0  0  0  0
   -0.6049  -10.8692   22.4441 C   0  0  0  0  0  0  0  0  0  0  0  0
    7.5780   -5.9951   16.0165 C   0  0  0  0  0  0  0  0  0  0  0  0
   -0.7359  -10.8450   20.0542 C   0  0  0  0  0  0  0  0  0  0  0  0
    1.0240  -11.7443   18.6054 C   0  0  0  0  0  0  0  0  0  0  0  0
    2.6597   -8.7525   16.1422 C   0  0  0  0  0  0  0  0  0  0  0  0
   10.7697   -3.6382   19.8893 C   0  0  0  0  0  0  0  0  0  0  0  0
    1.5848  -10.7455   17.7777 C   0  0  0  0  0  0  0  0  0  0  0  0
    5.6785   -7.4130   15.7047 C   0  0  0  0  0  0  0  0  0  0  0  0
  1 19  2  0
  2 24  4  0
  2 28  4  0
  3 19  1  0
  4 26  4  0
  4 33  4  0
  5 20  4  0
  5 27  4  0
  6 18  4  0
  6 21  4  0
  7 13  4  0
  7 25  4  0
  8 16  4  0
  8 17  4  0
  9 14  4  0
  9 17  4  0
 10 14  4  0
 10 32  4  0
 11 20  4  0
 11 29  4  0
 11 30  1  0
 12 18  4  0
 12 23  4  0
 12 33  4  0
 13 14  4  0
 13 24  4  0
 15 28  4  0
 15 34  4  0
 16 21  1  0
 16 34  4  0
 17 28  4  0
 19 32  1  0
 21 23  4  0
 22 27  4  0
 22 29  4  0
 23 31  4  0
 25 32  4  0
 26 31  4  0
 30 33  1  0
M  END
$$$$

 Created by Python create_sdf_string function

 34 39  0  0  0  0  0  0  0  0999 V2000
   11.7748   -2.4134   21.4869 O   0  0  0  0  0  0  0  0  0  0  0  0
    8.4571   -5.0280   15.5489 C   0  0  0  0  0  0  0  0  0  0  0  0
   10.6373   -4.1527   22.1338 O   0  0  0  0  0  0  0  0  0  0  0  0
    0.8865  -10.1736   16.8062 N   0  0  0  0  0  0  0  0  0  0  0  0
    0.6363  -11.5685   22.3514 C   0  0  0  0  0  0  0  0  0  0  0  0
    4.9382   -9.8865   18.4135 C   0  0  0  0  0  0  0  0  0  0  0  0
   10.8301   -3.1290   17.5832 C   0  0  0  0  0  0  0  0  0  0  0  0
    6.7438   -7.4973   17.7359 C   0  0  0  0  0  0  0  0  0  0  0  0
    8.5781   -5.9390   18.1797 N   0  0  0  0  0  0  0  0  0  0  0  0
    9.9427   -4.7068   19.6371 C   0  0  0  0  0  0  0  0  0  0  0  0
    0.4794  -11.4482   19.9323 C   0  0  0  0  0  0  0  0  0  0  0  0
    2.8970  -10.2853   17.8533 C   0  0  0  0  0  0  0  0  0  0  0  0
    9.9066   -4.1176   17.2835 C   0  0  0  0  0  0  0  0  0  0  0  0
    9.4685   -4.9581   18.3697 C   0  0  0  0  0  0  0  0  0  0  0  0
    6.5959   -6.5143   15.2606 C   0  0  0  0  0  0  0  0  0  0  0  0
    5.7287   -7.9676   16.9587 C   0  0  0  0  0  0  0  0  0  0  0  0
    7.6332   -6.5041   17.3535 C   0  0  0  0  0  0  0  0  0  0  0  0
    3.8550  -10.6808   18.6840 N   0  0  0  0  0  0  0  0  0  0  0  0
   11.0986   -3.3658   21.2207 C   0  0  0  0  0  0  0  0  0  0  0  0
    1.1160  -11.8135   21.0849 C   0  0  0  0  0  0  0  0  0  0  0  0
    4.7306   -8.9915   17.4326 C   0  0  0  0  0  0  0  0  0  0  0  0
   -1.3063  -10.5114   21.2530 C   0  0  0  0  0  0  0  0  0  0  0  0
    3.4124   -9.2810   17.0553 N   0  0  0  0  0  0  0  0  0  0  0  0
    9.4002   -4.2777   15.9890 C   0  0  0  0  0  0  0  0  0  0  0  0
   11.2565   -2.8190   18.8531 C   0  0  0  0  0  0  0  0  0  0  0  0
    1.3860   -9.2081   16.0076 C   0  0  0  0  0  0  0  0  0  0  0  0
   -0.6049  -10.8692   22.4441 C   0  0  0  0  0  0  0  0  0  0  0  0
    7.5780   -5.9951   16.0165 C   0  0  0  0  0  0  0  0  0  0  0  0
   -0.7359  -10.8450   20.0542 C   0  0  0  0  0  0  0  0  0  0  0  0
    1.0240  -11.7443   18.6054 C   0  0  0  0  0  0  0  0  0  0  0  0
    2.6597   -8.7525   16.1422 C   0  0  0  0  0  0  0  0  0  0  0  0
   10.7697   -3.6382   19.8893 C   0  0  0  0  0  0  0  0  0  0  0  0
    1.5848  -10.7455   17.7777 C   0  0  0  0  0  0  0  0  0  0  0  0
    5.6785   -7.4130   15.7047 C   0  0  0  0  0  0  0  0  0  0  0  0
  1 19  2  0
  2 24  4  0
  2 28  4  0
  3 19  1  0
  4 26  4  0
  4 33  4  0
  5 20  4  0
  5 27  4  0
  6 18  4  0
  6 21  4  0
  7 13  4  0
  7 25  4  0
  8 16  4  0
  8 17  4  0
  9 14  4  0
  9 17  4  0
 10 14  4  0
 10 32  4  0
 11 20  4  0
 11 29  4  0
 11 30  1  0
 12 18  4  0
 12 23  4  0
 12 33  4  0
 13 14  4  0
 13 24  4  0
 15 28  4  0
 15 34  4  0
 16 21  1  0
 16 34  4  0
 17 28  4  0
 19 32  1  0
 21 23  4  0
 22 27  4  0
 22 29  4  0
 23 31  4  0
 25 32  4  0
 26 31  4  0
 30 33  1  0
M  END
$$$$

 Created by Python create_sdf_string function

 34 39  0  0  0  0  0  0  0  0999 V2000
   11.7748   -2.4134   21.4869 O   0  0  0  0  0  0  0  0  0  0  0  0
    8.4571   -5.0280   15.5489 C   0  0  0  0  0  0  0  0  0  0  0  0
   10.6373   -4.1527   22.1338 O   0  0  0  0  0  0  0  0  0  0  0  0
    0.8865  -10.1736   16.8062 N   0  0  0  0  0  0  0  0  0  0  0  0
    0.6363  -11.5685   22.3514 C   0  0  0  0  0  0  0  0  0  0  0  0
    4.9382   -9.8865   18.4135 C   0  0  0  0  0  0  0  0  0  0  0  0
   10.8301   -3.1290   17.5832 C   0  0  0  0  0  0  0  0  0  0  0  0
    6.7438   -7.4973   17.7359 C   0  0  0  0  0  0  0  0  0  0  0  0
    8.5781   -5.9390   18.1797 N   0  0  0  0  0  0  0  0  0  0  0  0
    9.9427   -4.7068   19.6371 C   0  0  0  0  0  0  0  0  0  0  0  0
    0.4794  -11.4482   19.9323 C   0  0  0  0  0  0  0  0  0  0  0  0
    2.8970  -10.2853   17.8533 C   0  0  0  0  0  0  0  0  0  0  0  0
    9.9066   -4.1176   17.2835 C   0  0  0  0  0  0  0  0  0  0  0  0
    9.4685   -4.9581   18.3697 C   0  0  0  0  0  0  0  0  0  0  0  0
    6.5959   -6.5143   15.2606 C   0  0  0  0  0  0  0  0  0  0  0  0
    5.7287   -7.9676   16.9587 C   0  0  0  0  0  0  0  0  0  0  0  0
    7.6332   -6.5041   17.3535 C   0  0  0  0  0  0  0  0  0  0  0  0
    3.8550  -10.6808   18.6840 N   0  0  0  0  0  0  0  0  0  0  0  0
   11.0986   -3.3658   21.2207 C   0  0  0  0  0  0  0  0  0  0  0  0
    1.1160  -11.8135   21.0849 C   0  0  0  0  0  0  0  0  0  0  0  0
    4.7306   -8.9915   17.4326 C   0  0  0  0  0  0  0  0  0  0  0  0
   -1.3063  -10.5114   21.2530 C   0  0  0  0  0  0  0  0  0  0  0  0
    3.4124   -9.2810   17.0553 N   0  0  0  0  0  0  0  0  0  0  0  0
    9.4002   -4.2777   15.9890 C   0  0  0  0  0  0  0  0  0  0  0  0
   11.2565   -2.8190   18.8531 C   0  0  0  0  0  0  0  0  0  0  0  0
    1.3860   -9.2081   16.0076 C   0  0  0  0  0  0  0  0  0  0  0  0
   -0.6049  -10.8692   22.4441 C   0  0  0  0  0  0  0  0  0  0  0  0
    7.5780   -5.9951   16.0165 C   0  0  0  0  0  0  0  0  0  0  0  0
   -0.7359  -10.8450   20.0542 C   0  0  0  0  0  0  0  0  0  0  0  0
    1.0240  -11.7443   18.6054 C   0  0  0  0  0  0  0  0  0  0  0  0
    2.6597   -8.7525   16.1422 C   0  0  0  0  0  0  0  0  0  0  0  0
   10.7697   -3.6382   19.8893 C   0  0  0  0  0  0  0  0  0  0  0  0
    1.5848  -10.7455   17.7777 C   0  0  0  0  0  0  0  0  0  0  0  0
    5.6785   -7.4130   15.7047 C   0  0  0  0  0  0  0  0  0  0  0  0
  1 19  2  0
  2 24  4  0
  2 28  4  0
  3 19  1  0
  4 26  4  0
  4 33  4  0
  5 20  4  0
  5 27  4  0
  6 18  4  0
  6 21  4  0
  7 13  4  0
  7 25  4  0
  8 16  4  0
  8 17  4  0
  9 14  4  0
  9 17  4  0
 10 14  4  0
 10 32  4  0
 11 20  4  0
 11 29  4  0
 11 30  1  0
 12 18  4  0
 12 23  4  0
 12 33  4  0
 13 14  4  0
 13 24  4  0
 15 28  4  0
 15 34  4  0
 16 21  1  0
 16 34  4  0
 17 28  4  0
 19 32  1  0
 21 23  4  0
 22 27  4  0
 22 29  4  0
 23 31  4  0
 25 32  4  0
 26 31  4  0
 30 33  1  0
M  END
$$$$

 Created by Python create_sdf_string function

 34 39  0  0  0  0  0  0  0  0999 V2000
   11.7748   -2.4134   21.4869 O   0  0  0  0  0  0  0  0  0  0  0  0
    8.4571   -5.0280   15.5489 C   0  0  0  0  0  0  0  0  0  0  0  0
   10.6373   -4.1527   22.1338 O   0  0  0  0  0  0  0  0  0  0  0  0
    0.8865  -10.1736   16.8062 N   0  0  0  0  0  0  0  0  0  0  0  0
    0.6363  -11.5685   22.3514 C   0  0  0  0  0  0  0  0  0  0  0  0
    4.9382   -9.8865   18.4135 C   0  0  0  0  0  0  0  0  0  0  0  0
   10.8301   -3.1290   17.5832 C   0  0  0  0  0  0  0  0  0  0  0  0
    6.7438   -7.4973   17.7359 C   0  0  0  0  0  0  0  0  0  0  0  0
    8.5781   -5.9390   18.1797 N   0  0  0  0  0  0  0  0  0  0  0  0
    9.9427   -4.7068   19.6371 C   0  0  0  0  0  0  0  0  0  0  0  0
    0.4794  -11.4482   19.9323 C   0  0  0  0  0  0  0  0  0  0  0  0
    2.8970  -10.2853   17.8533 C   0  0  0  0  0  0  0  0  0  0  0  0
    9.9066   -4.1176   17.2835 C   0  0  0  0  0  0  0  0  0  0  0  0
    9.4685   -4.9581   18.3697 C   0  0  0  0  0  0  0  0  0  0  0  0
    6.5959   -6.5143   15.2606 C   0  0  0  0  0  0  0  0  0  0  0  0
    5.7287   -7.9676   16.9587 C   0  0  0  0  0  0  0  0  0  0  0  0
    7.6332   -6.5041   17.3535 C   0  0  0  0  0  0  0  0  0  0  0  0
    3.8550  -10.6808   18.6840 N   0  0  0  0  0  0  0  0  0  0  0  0
   11.0986   -3.3658   21.2207 C   0  0  0  0  0  0  0  0  0  0  0  0
    1.1160  -11.8135   21.0849 C   0  0  0  0  0  0  0  0  0  0  0  0
    4.7306   -8.9915   17.4326 C   0  0  0  0  0  0  0  0  0  0  0  0
   -1.3063  -10.5114   21.2530 C   0  0  0  0  0  0  0  0  0  0  0  0
    3.4124   -9.2810   17.0553 N   0  0  0  0  0  0  0  0  0  0  0  0
    9.4002   -4.2777   15.9890 C   0  0  0  0  0  0  0  0  0  0  0  0
   11.2565   -2.8190   18.8531 C   0  0  0  0  0  0  0  0  0  0  0  0
    1.3860   -9.2081   16.0076 C   0  0  0  0  0  0  0  0  0  0  0  0
   -0.6049  -10.8692   22.4441 C   0  0  0  0  0  0  0  0  0  0  0  0
    7.5780   -5.9951   16.0165 C   0  0  0  0  0  0  0  0  0  0  0  0
   -0.7359  -10.8450   20.0542 C   0  0  0  0  0  0  0  0  0  0  0  0
    1.0240  -11.7443   18.6054 C   0  0  0  0  0  0  0  0  0  0  0  0
    2.6597   -8.7525   16.1422 C   0  0  0  0  0  0  0  0  0  0  0  0
   10.7697   -3.6382   19.8893 C   0  0  0  0  0  0  0  0  0  0  0  0
    1.5848  -10.7455   17.7777 C   0  0  0  0  0  0  0  0  0  0  0  0
    5.6785   -7.4130   15.7047 C   0  0  0  0  0  0  0  0  0  0  0  0
  1 19  2  0
  2 24  4  0
  2 28  4  0
  3 19  1  0
  4 26  4  0
  4 33  4  0
  5 20  4  0
  5 27  4  0
  6 18  4  0
  6 21  4  0
  7 13  4  0
  7 25  4  0
  8 16  4  0
  8 17  4  0
  9 14  4  0
  9 17  4  0
 10 14  4  0
 10 32  4  0
 11 20  4  0
 11 29  4  0
 11 30  1  0
 12 18  4  0
 12 23  4  0
 12 33  4  0
 13 14  4  0
 13 24  4  0
 15 28  4  0
 15 34  4  0
 16 21  1  0
 16 34  4  0
 17 28  4  0
 19 32  1  0
 21 23  4  0
 22 27  4  0
 22 29  4  0
 23 31  4  0
 25 32  4  0
 26 31  4  0
 30 33  1  0
M  END
$$$$

 Created by Python create_sdf_string function

 34 39  0  0  0  0  0  0  0  0999 V2000
   11.7748   -2.4134   21.4869 O   0  0  0  0  0  0  0  0  0  0  0  0
    8.4571   -5.0280   15.5489 C   0  0  0  0  0  0  0  0  0  0  0  0
   10.6373   -4.1527   22.1338 O   0  0  0  0  0  0  0  0  0  0  0  0
    0.8865  -10.1736   16.8062 N   0  0  0  0  0  0  0  0  0  0  0  0
    0.6363  -11.5685   22.3514 C   0  0  0  0  0  0  0  0  0  0  0  0
    4.9382   -9.8865   18.4135 C   0  0  0  0  0  0  0  0  0  0  0  0
   10.8301   -3.1290   17.5832 C   0  0  0  0  0  0  0  0  0  0  0  0
    6.7438   -7.4973   17.7359 C   0  0  0  0  0  0  0  0  0  0  0  0
    8.5781   -5.9390   18.1797 N   0  0  0  0  0  0  0  0  0  0  0  0
    9.9427   -4.7068   19.6371 C   0  0  0  0  0  0  0  0  0  0  0  0
    0.4794  -11.4482   19.9323 C   0  0  0  0  0  0  0  0  0  0  0  0
    2.8970  -10.2853   17.8533 C   0  0  0  0  0  0  0  0  0  0  0  0
    9.9066   -4.1176   17.2835 C   0  0  0  0  0  0  0  0  0  0  0  0
    9.4685   -4.9581   18.3697 C   0  0  0  0  0  0  0  0  0  0  0  0
    6.5959   -6.5143   15.2606 C   0  0  0  0  0  0  0  0  0  0  0  0
    5.7287   -7.9676   16.9587 C   0  0  0  0  0  0  0  0  0  0  0  0
    7.6332   -6.5041   17.3535 C   0  0  0  0  0  0  0  0  0  0  0  0
    3.8550  -10.6808   18.6840 N   0  0  0  0  0  0  0  0  0  0  0  0
   11.0986   -3.3658   21.2207 C   0  0  0  0  0  0  0  0  0  0  0  0
    1.1160  -11.8135   21.0849 C   0  0  0  0  0  0  0  0  0  0  0  0
    4.7306   -8.9915   17.4326 C   0  0  0  0  0  0  0  0  0  0  0  0
   -1.3063  -10.5114   21.2530 C   0  0  0  0  0  0  0  0  0  0  0  0
    3.4124   -9.2810   17.0553 N   0  0  0  0  0  0  0  0  0  0  0  0
    9.4002   -4.2777   15.9890 C   0  0  0  0  0  0  0  0  0  0  0  0
   11.2565   -2.8190   18.8531 C   0  0  0  0  0  0  0  0  0  0  0  0
    1.3860   -9.2081   16.0076 C   0  0  0  0  0  0  0  0  0  0  0  0
   -0.6049  -10.8692   22.4441 C   0  0  0  0  0  0  0  0  0  0  0  0
    7.5780   -5.9951   16.0165 C   0  0  0  0  0  0  0  0  0  0  0  0
   -0.7359  -10.8450   20.0542 C   0  0  0  0  0  0  0  0  0  0  0  0
    1.0240  -11.7443   18.6054 C   0  0  0  0  0  0  0  0  0  0  0  0
    2.6597   -8.7525   16.1422 C   0  0  0  0  0  0  0  0  0  0  0  0
   10.7697   -3.6382   19.8893 C   0  0  0  0  0  0  0  0  0  0  0  0
    1.5848  -10.7455   17.7777 C   0  0  0  0  0  0  0  0  0  0  0  0
    5.6785   -7.4130   15.7047 C   0  0  0  0  0  0  0  0  0  0  0  0
  1 19  2  0
  2 24  4  0
  2 28  4  0
  3 19  1  0
  4 26  4  0
  4 33  4  0
  5 20  4  0
  5 27  4  0
  6 18  4  0
  6 21  4  0
  7 13  4  0
  7 25  4  0
  8 16  4  0
  8 17  4  0
  9 14  4  0
  9 17  4  0
 10 14  4  0
 10 32  4  0
 11 20  4  0
 11 29  4  0
 11 30  1  0
 12 18  4  0
 12 23  4  0
 12 33  4  0
 13 14  4  0
 13 24  4  0
 15 28  4  0
 15 34  4  0
 16 21  1  0
 16 34  4  0
 17 28  4  0
 19 32  1  0
 21 23  4  0
 22 27  4  0
 22 29  4  0
 23 31  4  0
 25 32  4  0
 26 31  4  0
 30 33  1  0
M  END
$$$$

 Created by Python create_sdf_string function

 34 39  0  0  0  0  0  0  0  0999 V2000
   11.7748   -2.4134   21.4869 O   0  0  0  0  0  0  0  0  0  0  0  0
    8.4571   -5.0280   15.5489 C   0  0  0  0  0  0  0  0  0  0  0  0
   10.6373   -4.1527   22.1338 O   0  0  0  0  0  0  0  0  0  0  0  0
    0.8865  -10.1736   16.8062 N   0  0  0  0  0  0  0  0  0  0  0  0
    0.6363  -11.5685   22.3514 C   0  0  0  0  0  0  0  0  0  0  0  0
    4.9382   -9.8865   18.4135 C   0  0  0  0  0  0  0  0  0  0  0  0
   10.8301   -3.1290   17.5832 C   0  0  0  0  0  0  0  0  0  0  0  0
    6.7438   -7.4973   17.7359 C   0  0  0  0  0  0  0  0  0  0  0  0
    8.5781   -5.9390   18.1797 N   0  0  0  0  0  0  0  0  0  0  0  0
    9.9427   -4.7068   19.6371 C   0  0  0  0  0  0  0  0  0  0  0  0
    0.4794  -11.4482   19.9323 C   0  0  0  0  0  0  0  0  0  0  0  0
    2.8970  -10.2853   17.8533 C   0  0  0  0  0  0  0  0  0  0  0  0
    9.9066   -4.1176   17.2835 C   0  0  0  0  0  0  0  0  0  0  0  0
    9.4685   -4.9581   18.3697 C   0  0  0  0  0  0  0  0  0  0  0  0
    6.5959   -6.5143   15.2606 C   0  0  0  0  0  0  0  0  0  0  0  0
    5.7287   -7.9676   16.9587 C   0  0  0  0  0  0  0  0  0  0  0  0
    7.6332   -6.5041   17.3535 C   0  0  0  0  0  0  0  0  0  0  0  0
    3.8550  -10.6808   18.6840 N   0  0  0  0  0  0  0  0  0  0  0  0
   11.0986   -3.3658   21.2207 C   0  0  0  0  0  0  0  0  0  0  0  0
    1.1160  -11.8135   21.0849 C   0  0  0  0  0  0  0  0  0  0  0  0
    4.7306   -8.9915   17.4326 C   0  0  0  0  0  0  0  0  0  0  0  0
   -1.3063  -10.5114   21.2530 C   0  0  0  0  0  0  0  0  0  0  0  0
    3.4124   -9.2810   17.0553 N   0  0  0  0  0  0  0  0  0  0  0  0
    9.4002   -4.2777   15.9890 C   0  0  0  0  0  0  0  0  0  0  0  0
   11.2565   -2.8190   18.8531 C   0  0  0  0  0  0  0  0  0  0  0  0
    1.3860   -9.2081   16.0076 C   0  0  0  0  0  0  0  0  0  0  0  0
   -0.6049  -10.8692   22.4441 C   0  0  0  0  0  0  0  0  0  0  0  0
    7.5780   -5.9951   16.0165 C   0  0  0  0  0  0  0  0  0  0  0  0
   -0.7359  -10.8450   20.0542 C   0  0  0  0  0  0  0  0  0  0  0  0
    1.0240  -11.7443   18.6054 C   0  0  0  0  0  0  0  0  0  0  0  0
    2.6597   -8.7525   16.1422 C   0  0  0  0  0  0  0  0  0  0  0  0
   10.7697   -3.6382   19.8893 C   0  0  0  0  0  0  0  0  0  0  0  0
    1.5848  -10.7455   17.7777 C   0  0  0  0  0  0  0  0  0  0  0  0
    5.6785   -7.4130   15.7047 C   0  0  0  0  0  0  0  0  0  0  0  0
  1 19  2  0
  2 24  4  0
  2 28  4  0
  3 19  1  0
  4 26  4  0
  4 33  4  0
  5 20  4  0
  5 27  4  0
  6 18  4  0
  6 21  4  0
  7 13  4  0
  7 25  4  0
  8 16  4  0
  8 17  4  0
  9 14  4  0
  9 17  4  0
 10 14  4  0
 10 32  4  0
 11 20  4  0
 11 29  4  0
 11 30  1  0
 12 18  4  0
 12 23  4  0
 12 33  4  0
 13 14  4  0
 13 24  4  0
 15 28  4  0
 15 34  4  0
 16 21  1  0
 16 34  4  0
 17 28  4  0
 19 32  1  0
 21 23  4  0
 22 27  4  0
 22 29  4  0
 23 31  4  0
 25 32  4  0
 26 31  4  0
 30 33  1  0
M  END
$$$$

 Created by Python create_sdf_string function

 34 39  0  0  0  0  0  0  0  0999 V2000
   11.7748   -2.4134   21.4869 O   0  0  0  0  0  0  0  0  0  0  0  0
    8.4571   -5.0280   15.5489 C   0  0  0  0  0  0  0  0  0  0  0  0
   10.6373   -4.1527   22.1338 O   0  0  0  0  0  0  0  0  0  0  0  0
    0.8865  -10.1736   16.8062 N   0  0  0  0  0  0  0  0  0  0  0  0
    0.6363  -11.5685   22.3514 C   0  0  0  0  0  0  0  0  0  0  0  0
    4.9382   -9.8865   18.4135 C   0  0  0  0  0  0  0  0  0  0  0  0
   10.8301   -3.1290   17.5832 C   0  0  0  0  0  0  0  0  0  0  0  0
    6.7438   -7.4973   17.7359 C   0  0  0  0  0  0  0  0  0  0  0  0
    8.5781   -5.9390   18.1797 N   0  0  0  0  0  0  0  0  0  0  0  0
    9.9427   -4.7068   19.6371 C   0  0  0  0  0  0  0  0  0  0  0  0
    0.4794  -11.4482   19.9323 C   0  0  0  0  0  0  0  0  0  0  0  0
    2.8970  -10.2853   17.8533 C   0  0  0  0  0  0  0  0  0  0  0  0
    9.9066   -4.1176   17.2835 C   0  0  0  0  0  0  0  0  0  0  0  0
    9.4685   -4.9581   18.3697 C   0  0  0  0  0  0  0  0  0  0  0  0
    6.5959   -6.5143   15.2606 C   0  0  0  0  0  0  0  0  0  0  0  0
    5.7287   -7.9676   16.9587 C   0  0  0  0  0  0  0  0  0  0  0  0
    7.6332   -6.5041   17.3535 C   0  0  0  0  0  0  0  0  0  0  0  0
    3.8550  -10.6808   18.6840 N   0  0  0  0  0  0  0  0  0  0  0  0
   11.0986   -3.3658   21.2207 C   0  0  0  0  0  0  0  0  0  0  0  0
    1.1160  -11.8135   21.0849 C   0  0  0  0  0  0  0  0  0  0  0  0
    4.7306   -8.9915   17.4326 C   0  0  0  0  0  0  0  0  0  0  0  0
   -1.3063  -10.5114   21.2530 C   0  0  0  0  0  0  0  0  0  0  0  0
    3.4124   -9.2810   17.0553 N   0  0  0  0  0  0  0  0  0  0  0  0
    9.4002   -4.2777   15.9890 C   0  0  0  0  0  0  0  0  0  0  0  0
   11.2565   -2.8190   18.8531 C   0  0  0  0  0  0  0  0  0  0  0  0
    1.3860   -9.2081   16.0076 C   0  0  0  0  0  0  0  0  0  0  0  0
   -0.6049  -10.8692   22.4441 C   0  0  0  0  0  0  0  0  0  0  0  0
    7.5780   -5.9951   16.0165 C   0  0  0  0  0  0  0  0  0  0  0  0
   -0.7359  -10.8450   20.0542 C   0  0  0  0  0  0  0  0  0  0  0  0
    1.0240  -11.7443   18.6054 C   0  0  0  0  0  0  0  0  0  0  0  0
    2.6597   -8.7525   16.1422 C   0  0  0  0  0  0  0  0  0  0  0  0
   10.7697   -3.6382   19.8893 C   0  0  0  0  0  0  0  0  0  0  0  0
    1.5848  -10.7455   17.7777 C   0  0  0  0  0  0  0  0  0  0  0  0
    5.6785   -7.4130   15.7047 C   0  0  0  0  0  0  0  0  0  0  0  0
  1 19  2  0
  2 24  4  0
  2 28  4  0
  3 19  1  0
  4 26  4  0
  4 33  4  0
  5 20  4  0
  5 27  4  0
  6 18  4  0
  6 21  4  0
  7 13  4  0
  7 25  4  0
  8 16  4  0
  8 17  4  0
  9 14  4  0
  9 17  4  0
 10 14  4  0
 10 32  4  0
 11 20  4  0
 11 29  4  0
 11 30  1  0
 12 18  4  0
 12 23  4  0
 12 33  4  0
 13 14  4  0
 13 24  4  0
 15 28  4  0
 15 34  4  0
 16 21  1  0
 16 34  4  0
 17 28  4  0
 19 32  1  0
 21 23  4  0
 22 27  4  0
 22 29  4  0
 23 31  4  0
 25 32  4  0
 26 31  4  0
 30 33  1  0
M  END
$$$$

 Created by Python create_sdf_string function

 34 39  0  0  0  0  0  0  0  0999 V2000
   11.7748   -2.4134   21.4869 O   0  0  0  0  0  0  0  0  0  0  0  0
    8.4571   -5.0280   15.5489 C   0  0  0  0  0  0  0  0  0  0  0  0
   10.6373   -4.1527   22.1338 O   0  0  0  0  0  0  0  0  0  0  0  0
    0.8865  -10.1736   16.8062 N   0  0  0  0  0  0  0  0  0  0  0  0
    0.6363  -11.5685   22.3514 C   0  0  0  0  0  0  0  0  0  0  0  0
    4.9382   -9.8865   18.4135 C   0  0  0  0  0  0  0  0  0  0  0  0
   10.8301   -3.1290   17.5832 C   0  0  0  0  0  0  0  0  0  0  0  0
    6.7438   -7.4973   17.7359 C   0  0  0  0  0  0  0  0  0  0  0  0
    8.5781   -5.9390   18.1797 N   0  0  0  0  0  0  0  0  0  0  0  0
    9.9427   -4.7068   19.6371 C   0  0  0  0  0  0  0  0  0  0  0  0
    0.4794  -11.4482   19.9323 C   0  0  0  0  0  0  0  0  0  0  0  0
    2.8970  -10.2853   17.8533 C   0  0  0  0  0  0  0  0  0  0  0  0
    9.9066   -4.1176   17.2835 C   0  0  0  0  0  0  0  0  0  0  0  0
    9.4685   -4.9581   18.3697 C   0  0  0  0  0  0  0  0  0  0  0  0
    6.5959   -6.5143   15.2606 C   0  0  0  0  0  0  0  0  0  0  0  0
    5.7287   -7.9676   16.9587 C   0  0  0  0  0  0  0  0  0  0  0  0
    7.6332   -6.5041   17.3535 C   0  0  0  0  0  0  0  0  0  0  0  0
    3.8550  -10.6808   18.6840 N   0  0  0  0  0  0  0  0  0  0  0  0
   11.0986   -3.3658   21.2207 C   0  0  0  0  0  0  0  0  0  0  0  0
    1.1160  -11.8135   21.0849 C   0  0  0  0  0  0  0  0  0  0  0  0
    4.7306   -8.9915   17.4326 C   0  0  0  0  0  0  0  0  0  0  0  0
   -1.3063  -10.5114   21.2530 C   0  0  0  0  0  0  0  0  0  0  0  0
    3.4124   -9.2810   17.0553 N   0  0  0  0  0  0  0  0  0  0  0  0
    9.4002   -4.2777   15.9890 C   0  0  0  0  0  0  0  0  0  0  0  0
   11.2565   -2.8190   18.8531 C   0  0  0  0  0  0  0  0  0  0  0  0
    1.3860   -9.2081   16.0076 C   0  0  0  0  0  0  0  0  0  0  0  0
   -0.6049  -10.8692   22.4441 C   0  0  0  0  0  0  0  0  0  0  0  0
    7.5780   -5.9951   16.0165 C   0  0  0  0  0  0  0  0  0  0  0  0
   -0.7359  -10.8450   20.0542 C   0  0  0  0  0  0  0  0  0  0  0  0
    1.0240  -11.7443   18.6054 C   0  0  0  0  0  0  0  0  0  0  0  0
    2.6597   -8.7525   16.1422 C   0  0  0  0  0  0  0  0  0  0  0  0
   10.7697   -3.6382   19.8893 C   0  0  0  0  0  0  0  0  0  0  0  0
    1.5848  -10.7455   17.7777 C   0  0  0  0  0  0  0  0  0  0  0  0
    5.6785   -7.4130   15.7047 C   0  0  0  0  0  0  0  0  0  0  0  0
  1 19  2  0
  2 24  4  0
  2 28  4  0
  3 19  1  0
  4 26  4  0
  4 33  4  0
  5 20  4  0
  5 27  4  0
  6 18  4  0
  6 21  4  0
  7 13  4  0
  7 25  4  0
  8 16  4  0
  8 17  4  0
  9 14  4  0
  9 17  4  0
 10 14  4  0
 10 32  4  0
 11 20  4  0
 11 29  4  0
 11 30  1  0
 12 18  4  0
 12 23  4  0
 12 33  4  0
 13 14  4  0
 13 24  4  0
 15 28  4  0
 15 34  4  0
 16 21  1  0
 16 34  4  0
 17 28  4  0
 19 32  1  0
 21 23  4  0
 22 27  4  0
 22 29  4  0
 23 31  4  0
 25 32  4  0
 26 31  4  0
 30 33  1  0
M  END
$$$$

 Created by Python create_sdf_string function

 34 39  0  0  0  0  0  0  0  0999 V2000
   11.7748   -2.4134   21.4869 O   0  0  0  0  0  0  0  0  0  0  0  0
    8.4571   -5.0280   15.5489 C   0  0  0  0  0  0  0  0  0  0  0  0
   10.6373   -4.1527   22.1338 O   0  0  0  0  0  0  0  0  0  0  0  0
    0.8865  -10.1736   16.8062 N   0  0  0  0  0  0  0  0  0  0  0  0
    0.6363  -11.5685   22.3514 C   0  0  0  0  0  0  0  0  0  0  0  0
    4.9382   -9.8865   18.4135 C   0  0  0  0  0  0  0  0  0  0  0  0
   10.8301   -3.1290   17.5832 C   0  0  0  0  0  0  0  0  0  0  0  0
    6.7438   -7.4973   17.7359 C   0  0  0  0  0  0  0  0  0  0  0  0
    8.5781   -5.9390   18.1797 N   0  0  0  0  0  0  0  0  0  0  0  0
    9.9427   -4.7068   19.6371 C   0  0  0  0  0  0  0  0  0  0  0  0
    0.4794  -11.4482   19.9323 C   0  0  0  0  0  0  0  0  0  0  0  0
    2.8970  -10.2853   17.8533 C   0  0  0  0  0  0  0  0  0  0  0  0
    9.9066   -4.1176   17.2835 C   0  0  0  0  0  0  0  0  0  0  0  0
    9.4685   -4.9581   18.3697 C   0  0  0  0  0  0  0  0  0  0  0  0
    6.5959   -6.5143   15.2606 C   0  0  0  0  0  0  0  0  0  0  0  0
    5.7287   -7.9676   16.9587 C   0  0  0  0  0  0  0  0  0  0  0  0
    7.6332   -6.5041   17.3535 C   0  0  0  0  0  0  0  0  0  0  0  0
    3.8550  -10.6808   18.6840 N   0  0  0  0  0  0  0  0  0  0  0  0
   11.0986   -3.3658   21.2207 C   0  0  0  0  0  0  0  0  0  0  0  0
    1.1160  -11.8135   21.0849 C   0  0  0  0  0  0  0  0  0  0  0  0
    4.7306   -8.9915   17.4326 C   0  0  0  0  0  0  0  0  0  0  0  0
   -1.3063  -10.5114   21.2530 C   0  0  0  0  0  0  0  0  0  0  0  0
    3.4124   -9.2810   17.0553 N   0  0  0  0  0  0  0  0  0  0  0  0
    9.4002   -4.2777   15.9890 C   0  0  0  0  0  0  0  0  0  0  0  0
   11.2565   -2.8190   18.8531 C   0  0  0  0  0  0  0  0  0  0  0  0
    1.3860   -9.2081   16.0076 C   0  0  0  0  0  0  0  0  0  0  0  0
   -0.6049  -10.8692   22.4441 C   0  0  0  0  0  0  0  0  0  0  0  0
    7.5780   -5.9951   16.0165 C   0  0  0  0  0  0  0  0  0  0  0  0
   -0.7359  -10.8450   20.0542 C   0  0  0  0  0  0  0  0  0  0  0  0
    1.0240  -11.7443   18.6054 C   0  0  0  0  0  0  0  0  0  0  0  0
    2.6597   -8.7525   16.1422 C   0  0  0  0  0  0  0  0  0  0  0  0
   10.7697   -3.6382   19.8893 C   0  0  0  0  0  0  0  0  0  0  0  0
    1.5848  -10.7455   17.7777 C   0  0  0  0  0  0  0  0  0  0  0  0
    5.6785   -7.4130   15.7047 C   0  0  0  0  0  0  0  0  0  0  0  0
  1 19  2  0
  2 24  4  0
  2 28  4  0
  3 19  1  0
  4 26  4  0
  4 33  4  0
  5 20  4  0
  5 27  4  0
  6 18  4  0
  6 21  4  0
  7 13  4  0
  7 25  4  0
  8 16  4  0
  8 17  4  0
  9 14  4  0
  9 17  4  0
 10 14  4  0
 10 32  4  0
 11 20  4  0
 11 29  4  0
 11 30  1  0
 12 18  4  0
 12 23  4  0
 12 33  4  0
 13 14  4  0
 13 24  4  0
 15 28  4  0
 15 34  4  0
 16 21  1  0
 16 34  4  0
 17 28  4  0
 19 32  1  0
 21 23  4  0
 22 27  4  0
 22 29  4  0
 23 31  4  0
 25 32  4  0
 26 31  4  0
 30 33  1  0
M  END
$$$$

 Created by Python create_sdf_string function

 34 39  0  0  0  0  0  0  0  0999 V2000
   11.7748   -2.4134   21.4869 O   0  0  0  0  0  0  0  0  0  0  0  0
    8.4571   -5.0280   15.5489 C   0  0  0  0  0  0  0  0  0  0  0  0
   10.6373   -4.1527   22.1338 O   0  0  0  0  0  0  0  0  0  0  0  0
    0.8865  -10.1736   16.8062 N   0  0  0  0  0  0  0  0  0  0  0  0
    0.6363  -11.5685   22.3514 C   0  0  0  0  0  0  0  0  0  0  0  0
    4.9382   -9.8865   18.4135 C   0  0  0  0  0  0  0  0  0  0  0  0
   10.8301   -3.1290   17.5832 C   0  0  0  0  0  0  0  0  0  0  0  0
    6.7438   -7.4973   17.7359 C   0  0  0  0  0  0  0  0  0  0  0  0
    8.5781   -5.9390   18.1797 N   0  0  0  0  0  0  0  0  0  0  0  0
    9.9427   -4.7068   19.6371 C   0  0  0  0  0  0  0  0  0  0  0  0
    0.4794  -11.4482   19.9323 C   0  0  0  0  0  0  0  0  0  0  0  0
    2.8970  -10.2853   17.8533 C   0  0  0  0  0  0  0  0  0  0  0  0
    9.9066   -4.1176   17.2835 C   0  0  0  0  0  0  0  0  0  0  0  0
    9.4685   -4.9581   18.3697 C   0  0  0  0  0  0  0  0  0  0  0  0
    6.5959   -6.5143   15.2606 C   0  0  0  0  0  0  0  0  0  0  0  0
    5.7287   -7.9676   16.9587 C   0  0  0  0  0  0  0  0  0  0  0  0
    7.6332   -6.5041   17.3535 C   0  0  0  0  0  0  0  0  0  0  0  0
    3.8550  -10.6808   18.6840 N   0  0  0  0  0  0  0  0  0  0  0  0
   11.0986   -3.3658   21.2207 C   0  0  0  0  0  0  0  0  0  0  0  0
    1.1160  -11.8135   21.0849 C   0  0  0  0  0  0  0  0  0  0  0  0
    4.7306   -8.9915   17.4326 C   0  0  0  0  0  0  0  0  0  0  0  0
   -1.3063  -10.5114   21.2530 C   0  0  0  0  0  0  0  0  0  0  0  0
    3.4124   -9.2810   17.0553 N   0  0  0  0  0  0  0  0  0  0  0  0
    9.4002   -4.2777   15.9890 C   0  0  0  0  0  0  0  0  0  0  0  0
   11.2565   -2.8190   18.8531 C   0  0  0  0  0  0  0  0  0  0  0  0
    1.3860   -9.2081   16.0076 C   0  0  0  0  0  0  0  0  0  0  0  0
   -0.6049  -10.8692   22.4441 C   0  0  0  0  0  0  0  0  0  0  0  0
    7.5780   -5.9951   16.0165 C   0  0  0  0  0  0  0  0  0  0  0  0
   -0.7359  -10.8450   20.0542 C   0  0  0  0  0  0  0  0  0  0  0  0
    1.0240  -11.7443   18.6054 C   0  0  0  0  0  0  0  0  0  0  0  0
    2.6597   -8.7525   16.1422 C   0  0  0  0  0  0  0  0  0  0  0  0
   10.7697   -3.6382   19.8893 C   0  0  0  0  0  0  0  0  0  0  0  0
    1.5848  -10.7455   17.7777 C   0  0  0  0  0  0  0  0  0  0  0  0
    5.6785   -7.4130   15.7047 C   0  0  0  0  0  0  0  0  0  0  0  0
  1 19  2  0
  2 24  4  0
  2 28  4  0
  3 19  1  0
  4 26  4  0
  4 33  4  0
  5 20  4  0
  5 27  4  0
  6 18  4  0
  6 21  4  0
  7 13  4  0
  7 25  4  0
  8 16  4  0
  8 17  4  0
  9 14  4  0
  9 17  4  0
 10 14  4  0
 10 32  4  0
 11 20  4  0
 11 29  4  0
 11 30  1  0
 12 18  4  0
 12 23  4  0
 12 33  4  0
 13 14  4  0
 13 24  4  0
 15 28  4  0
 15 34  4  0
 16 21  1  0
 16 34  4  0
 17 28  4  0
 19 32  1  0
 21 23  4  0
 22 27  4  0
 22 29  4  0
 23 31  4  0
 25 32  4  0
 26 31  4  0
 30 33  1  0
M  END
$$$$

 Created by Python create_sdf_string function

 34 39  0  0  0  0  0  0  0  0999 V2000
   11.7748   -2.4134   21.4869 O   0  0  0  0  0  0  0  0  0  0  0  0
    8.4571   -5.0280   15.5489 C   0  0  0  0  0  0  0  0  0  0  0  0
   10.6373   -4.1527   22.1338 O   0  0  0  0  0  0  0  0  0  0  0  0
    0.8865  -10.1736   16.8062 N   0  0  0  0  0  0  0  0  0  0  0  0
    0.6363  -11.5685   22.3514 C   0  0  0  0  0  0  0  0  0  0  0  0
    4.9382   -9.8865   18.4135 C   0  0  0  0  0  0  0  0  0  0  0  0
   10.8301   -3.1290   17.5832 C   0  0  0  0  0  0  0  0  0  0  0  0
    6.7438   -7.4973   17.7359 C   0  0  0  0  0  0  0  0  0  0  0  0
    8.5781   -5.9390   18.1797 N   0  0  0  0  0  0  0  0  0  0  0  0
    9.9427   -4.7068   19.6371 C   0  0  0  0  0  0  0  0  0  0  0  0
    0.4794  -11.4482   19.9323 C   0  0  0  0  0  0  0  0  0  0  0  0
    2.8970  -10.2853   17.8533 C   0  0  0  0  0  0  0  0  0  0  0  0
    9.9066   -4.1176   17.2835 C   0  0  0  0  0  0  0  0  0  0  0  0
    9.4685   -4.9581   18.3697 C   0  0  0  0  0  0  0  0  0  0  0  0
    6.5959   -6.5143   15.2606 C   0  0  0  0  0  0  0  0  0  0  0  0
    5.7287   -7.9676   16.9587 C   0  0  0  0  0  0  0  0  0  0  0  0
    7.6332   -6.5041   17.3535 C   0  0  0  0  0  0  0  0  0  0  0  0
    3.8550  -10.6808   18.6840 N   0  0  0  0  0  0  0  0  0  0  0  0
   11.0986   -3.3658   21.2207 C   0  0  0  0  0  0  0  0  0  0  0  0
    1.1160  -11.8135   21.0849 C   0  0  0  0  0  0  0  0  0  0  0  0
    4.7306   -8.9915   17.4326 C   0  0  0  0  0  0  0  0  0  0  0  0
   -1.3063  -10.5114   21.2530 C   0  0  0  0  0  0  0  0  0  0  0  0
    3.4124   -9.2810   17.0553 N   0  0  0  0  0  0  0  0  0  0  0  0
    9.4002   -4.2777   15.9890 C   0  0  0  0  0  0  0  0  0  0  0  0
   11.2565   -2.8190   18.8531 C   0  0  0  0  0  0  0  0  0  0  0  0
    1.3860   -9.2081   16.0076 C   0  0  0  0  0  0  0  0  0  0  0  0
   -0.6049  -10.8692   22.4441 C   0  0  0  0  0  0  0  0  0  0  0  0
    7.5780   -5.9951   16.0165 C   0  0  0  0  0  0  0  0  0  0  0  0
   -0.7359  -10.8450   20.0542 C   0  0  0  0  0  0  0  0  0  0  0  0
    1.0240  -11.7443   18.6054 C   0  0  0  0  0  0  0  0  0  0  0  0
    2.6597   -8.7525   16.1422 C   0  0  0  0  0  0  0  0  0  0  0  0
   10.7697   -3.6382   19.8893 C   0  0  0  0  0  0  0  0  0  0  0  0
    1.5848  -10.7455   17.7777 C   0  0  0  0  0  0  0  0  0  0  0  0
    5.6785   -7.4130   15.7047 C   0  0  0  0  0  0  0  0  0  0  0  0
  1 19  2  0
  2 24  4  0
  2 28  4  0
  3 19  1  0
  4 26  4  0
  4 33  4  0
  5 20  4  0
  5 27  4  0
  6 18  4  0
  6 21  4  0
  7 13  4  0
  7 25  4  0
  8 16  4  0
  8 17  4  0
  9 14  4  0
  9 17  4  0
 10 14  4  0
 10 32  4  0
 11 20  4  0
 11 29  4  0
 11 30  1  0
 12 18  4  0
 12 23  4  0
 12 33  4  0
 13 14  4  0
 13 24  4  0
 15 28  4  0
 15 34  4  0
 16 21  1  0
 16 34  4  0
 17 28  4  0
 19 32  1  0
 21 23  4  0
 22 27  4  0
 22 29  4  0
 23 31  4  0
 25 32  4  0
 26 31  4  0
 30 33  1  0
M  END
$$$$

 Created by Python create_sdf_string function

 34 39  0  0  0  0  0  0  0  0999 V2000
   11.7748   -2.4134   21.4869 O   0  0  0  0  0  0  0  0  0  0  0  0
    8.4571   -5.0280   15.5489 C   0  0  0  0  0  0  0  0  0  0  0  0
   10.6373   -4.1527   22.1338 O   0  0  0  0  0  0  0  0  0  0  0  0
    0.8865  -10.1736   16.8062 N   0  0  0  0  0  0  0  0  0  0  0  0
    0.6363  -11.5685   22.3514 C   0  0  0  0  0  0  0  0  0  0  0  0
    4.9382   -9.8865   18.4135 C   0  0  0  0  0  0  0  0  0  0  0  0
   10.8301   -3.1290   17.5832 C   0  0  0  0  0  0  0  0  0  0  0  0
    6.7438   -7.4973   17.7359 C   0  0  0  0  0  0  0  0  0  0  0  0
    8.5781   -5.9390   18.1797 N   0  0  0  0  0  0  0  0  0  0  0  0
    9.9427   -4.7068   19.6371 C   0  0  0  0  0  0  0  0  0  0  0  0
    0.4794  -11.4482   19.9323 C   0  0  0  0  0  0  0  0  0  0  0  0
    2.8970  -10.2853   17.8533 C   0  0  0  0  0  0  0  0  0  0  0  0
    9.9066   -4.1176   17.2835 C   0  0  0  0  0  0  0  0  0  0  0  0
    9.4685   -4.9581   18.3697 C   0  0  0  0  0  0  0  0  0  0  0  0
    6.5959   -6.5143   15.2606 C   0  0  0  0  0  0  0  0  0  0  0  0
    5.7287   -7.9676   16.9587 C   0  0  0  0  0  0  0  0  0  0  0  0
    7.6332   -6.5041   17.3535 C   0  0  0  0  0  0  0  0  0  0  0  0
    3.8550  -10.6808   18.6840 N   0  0  0  0  0  0  0  0  0  0  0  0
   11.0986   -3.3658   21.2207 C   0  0  0  0  0  0  0  0  0  0  0  0
    1.1160  -11.8135   21.0849 C   0  0  0  0  0  0  0  0  0  0  0  0
    4.7306   -8.9915   17.4326 C   0  0  0  0  0  0  0  0  0  0  0  0
   -1.3063  -10.5114   21.2530 C   0  0  0  0  0  0  0  0  0  0  0  0
    3.4124   -9.2810   17.0553 N   0  0  0  0  0  0  0  0  0  0  0  0
    9.4002   -4.2777   15.9890 C   0  0  0  0  0  0  0  0  0  0  0  0
   11.2565   -2.8190   18.8531 C   0  0  0  0  0  0  0  0  0  0  0  0
    1.3860   -9.2081   16.0076 C   0  0  0  0  0  0  0  0  0  0  0  0
   -0.6049  -10.8692   22.4441 C   0  0  0  0  0  0  0  0  0  0  0  0
    7.5780   -5.9951   16.0165 C   0  0  0  0  0  0  0  0  0  0  0  0
   -0.7359  -10.8450   20.0542 C   0  0  0  0  0  0  0  0  0  0  0  0
    1.0240  -11.7443   18.6054 C   0  0  0  0  0  0  0  0  0  0  0  0
    2.6597   -8.7525   16.1422 C   0  0  0  0  0  0  0  0  0  0  0  0
   10.7697   -3.6382   19.8893 C   0  0  0  0  0  0  0  0  0  0  0  0
    1.5848  -10.7455   17.7777 C   0  0  0  0  0  0  0  0  0  0  0  0
    5.6785   -7.4130   15.7047 C   0  0  0  0  0  0  0  0  0  0  0  0
  1 19  2  0
  2 24  4  0
  2 28  4  0
  3 19  1  0
  4 26  4  0
  4 33  4  0
  5 20  4  0
  5 27  4  0
  6 18  4  0
  6 21  4  0
  7 13  4  0
  7 25  4  0
  8 16  4  0
  8 17  4  0
  9 14  4  0
  9 17  4  0
 10 14  4  0
 10 32  4  0
 11 20  4  0
 11 29  4  0
 11 30  1  0
 12 18  4  0
 12 23  4  0
 12 33  4  0
 13 14  4  0
 13 24  4  0
 15 28  4  0
 15 34  4  0
 16 21  1  0
 16 34  4  0
 17 28  4  0
 19 32  1  0
 21 23  4  0
 22 27  4  0
 22 29  4  0
 23 31  4  0
 25 32  4  0
 26 31  4  0
 30 33  1  0
M  END
$$$$

 Created by Python create_sdf_string function

 34 39  0  0  0  0  0  0  0  0999 V2000
   11.7748   -2.4134   21.4869 O   0  0  0  0  0  0  0  0  0  0  0  0
    8.4571   -5.0280   15.5489 C   0  0  0  0  0  0  0  0  0  0  0  0
   10.6373   -4.1527   22.1338 O   0  0  0  0  0  0  0  0  0  0  0  0
    0.8865  -10.1736   16.8062 N   0  0  0  0  0  0  0  0  0  0  0  0
    0.6363  -11.5685   22.3514 C   0  0  0  0  0  0  0  0  0  0  0  0
    4.9382   -9.8865   18.4135 C   0  0  0  0  0  0  0  0  0  0  0  0
   10.8301   -3.1290   17.5832 C   0  0  0  0  0  0  0  0  0  0  0  0
    6.7438   -7.4973   17.7359 C   0  0  0  0  0  0  0  0  0  0  0  0
    8.5781   -5.9390   18.1797 N   0  0  0  0  0  0  0  0  0  0  0  0
    9.9427   -4.7068   19.6371 C   0  0  0  0  0  0  0  0  0  0  0  0
    0.4794  -11.4482   19.9323 C   0  0  0  0  0  0  0  0  0  0  0  0
    2.8970  -10.2853   17.8533 C   0  0  0  0  0  0  0  0  0  0  0  0
    9.9066   -4.1176   17.2835 C   0  0  0  0  0  0  0  0  0  0  0  0
    9.4685   -4.9581   18.3697 C   0  0  0  0  0  0  0  0  0  0  0  0
    6.5959   -6.5143   15.2606 C   0  0  0  0  0  0  0  0  0  0  0  0
    5.7287   -7.9676   16.9587 C   0  0  0  0  0  0  0  0  0  0  0  0
    7.6332   -6.5041   17.3535 C   0  0  0  0  0  0  0  0  0  0  0  0
    3.8550  -10.6808   18.6840 N   0  0  0  0  0  0  0  0  0  0  0  0
   11.0986   -3.3658   21.2207 C   0  0  0  0  0  0  0  0  0  0  0  0
    1.1160  -11.8135   21.0849 C   0  0  0  0  0  0  0  0  0  0  0  0
    4.7306   -8.9915   17.4326 C   0  0  0  0  0  0  0  0  0  0  0  0
   -1.3063  -10.5114   21.2530 C   0  0  0  0  0  0  0  0  0  0  0  0
    3.4124   -9.2810   17.0553 N   0  0  0  0  0  0  0  0  0  0  0  0
    9.4002   -4.2777   15.9890 C   0  0  0  0  0  0  0  0  0  0  0  0
   11.2565   -2.8190   18.8531 C   0  0  0  0  0  0  0  0  0  0  0  0
    1.3860   -9.2081   16.0076 C   0  0  0  0  0  0  0  0  0  0  0  0
   -0.6049  -10.8692   22.4441 C   0  0  0  0  0  0  0  0  0  0  0  0
    7.5780   -5.9951   16.0165 C   0  0  0  0  0  0  0  0  0  0  0  0
   -0.7359  -10.8450   20.0542 C   0  0  0  0  0  0  0  0  0  0  0  0
    1.0240  -11.7443   18.6054 C   0  0  0  0  0  0  0  0  0  0  0  0
    2.6597   -8.7525   16.1422 C   0  0  0  0  0  0  0  0  0  0  0  0
   10.7697   -3.6382   19.8893 C   0  0  0  0  0  0  0  0  0  0  0  0
    1.5848  -10.7455   17.7777 C   0  0  0  0  0  0  0  0  0  0  0  0
    5.6785   -7.4130   15.7047 C   0  0  0  0  0  0  0  0  0  0  0  0
  1 19  2  0
  2 24  4  0
  2 28  4  0
  3 19  1  0
  4 26  4  0
  4 33  4  0
  5 20  4  0
  5 27  4  0
  6 18  4  0
  6 21  4  0
  7 13  4  0
  7 25  4  0
  8 16  4  0
  8 17  4  0
  9 14  4  0
  9 17  4  0
 10 14  4  0
 10 32  4  0
 11 20  4  0
 11 29  4  0
 11 30  1  0
 12 18  4  0
 12 23  4  0
 12 33  4  0
 13 14  4  0
 13 24  4  0
 15 28  4  0
 15 34  4  0
 16 21  1  0
 16 34  4  0
 17 28  4  0
 19 32  1  0
 21 23  4  0
 22 27  4  0
 22 29  4  0
 23 31  4  0
 25 32  4  0
 26 31  4  0
 30 33  1  0
M  END
$$$$

 Created by Python create_sdf_string function

 34 39  0  0  0  0  0  0  0  0999 V2000
   11.7748   -2.4134   21.4869 O   0  0  0  0  0  0  0  0  0  0  0  0
    8.4571   -5.0280   15.5489 C   0  0  0  0  0  0  0  0  0  0  0  0
   10.6373   -4.1527   22.1338 O   0  0  0  0  0  0  0  0  0  0  0  0
    0.8865  -10.1736   16.8062 N   0  0  0  0  0  0  0  0  0  0  0  0
    0.6363  -11.5685   22.3514 C   0  0  0  0  0  0  0  0  0  0  0  0
    4.9382   -9.8865   18.4135 C   0  0  0  0  0  0  0  0  0  0  0  0
   10.8301   -3.1290   17.5832 C   0  0  0  0  0  0  0  0  0  0  0  0
    6.7438   -7.4973   17.7359 C   0  0  0  0  0  0  0  0  0  0  0  0
    8.5781   -5.9390   18.1797 N   0  0  0  0  0  0  0  0  0  0  0  0
    9.9427   -4.7068   19.6371 C   0  0  0  0  0  0  0  0  0  0  0  0
    0.4794  -11.4482   19.9323 C   0  0  0  0  0  0  0  0  0  0  0  0
    2.8970  -10.2853   17.8533 C   0  0  0  0  0  0  0  0  0  0  0  0
    9.9066   -4.1176   17.2835 C   0  0  0  0  0  0  0  0  0  0  0  0
    9.4685   -4.9581   18.3697 C   0  0  0  0  0  0  0  0  0  0  0  0
    6.5959   -6.5143   15.2606 C   0  0  0  0  0  0  0  0  0  0  0  0
    5.7287   -7.9676   16.9587 C   0  0  0  0  0  0  0  0  0  0  0  0
    7.6332   -6.5041   17.3535 C   0  0  0  0  0  0  0  0  0  0  0  0
    3.8550  -10.6808   18.6840 N   0  0  0  0  0  0  0  0  0  0  0  0
   11.0986   -3.3658   21.2207 C   0  0  0  0  0  0  0  0  0  0  0  0
    1.1160  -11.8135   21.0849 C   0  0  0  0  0  0  0  0  0  0  0  0
    4.7306   -8.9915   17.4326 C   0  0  0  0  0  0  0  0  0  0  0  0
   -1.3063  -10.5114   21.2530 C   0  0  0  0  0  0  0  0  0  0  0  0
    3.4124   -9.2810   17.0553 N   0  0  0  0  0  0  0  0  0  0  0  0
    9.4002   -4.2777   15.9890 C   0  0  0  0  0  0  0  0  0  0  0  0
   11.2565   -2.8190   18.8531 C   0  0  0  0  0  0  0  0  0  0  0  0
    1.3860   -9.2081   16.0076 C   0  0  0  0  0  0  0  0  0  0  0  0
   -0.6049  -10.8692   22.4441 C   0  0  0  0  0  0  0  0  0  0  0  0
    7.5780   -5.9951   16.0165 C   0  0  0  0  0  0  0  0  0  0  0  0
   -0.7359  -10.8450   20.0542 C   0  0  0  0  0  0  0  0  0  0  0  0
    1.0240  -11.7443   18.6054 C   0  0  0  0  0  0  0  0  0  0  0  0
    2.6597   -8.7525   16.1422 C   0  0  0  0  0  0  0  0  0  0  0  0
   10.7697   -3.6382   19.8893 C   0  0  0  0  0  0  0  0  0  0  0  0
    1.5848  -10.7455   17.7777 C   0  0  0  0  0  0  0  0  0  0  0  0
    5.6785   -7.4130   15.7047 C   0  0  0  0  0  0  0  0  0  0  0  0
  1 19  2  0
  2 24  4  0
  2 28  4  0
  3 19  1  0
  4 26  4  0
  4 33  4  0
  5 20  4  0
  5 27  4  0
  6 18  4  0
  6 21  4  0
  7 13  4  0
  7 25  4  0
  8 16  4  0
  8 17  4  0
  9 14  4  0
  9 17  4  0
 10 14  4  0
 10 32  4  0
 11 20  4  0
 11 29  4  0
 11 30  1  0
 12 18  4  0
 12 23  4  0
 12 33  4  0
 13 14  4  0
 13 24  4  0
 15 28  4  0
 15 34  4  0
 16 21  1  0
 16 34  4  0
 17 28  4  0
 19 32  1  0
 21 23  4  0
 22 27  4  0
 22 29  4  0
 23 31  4  0
 25 32  4  0
 26 31  4  0
 30 33  1  0
M  END
$$$$

 Created by Python create_sdf_string function

 34 39  0  0  0  0  0  0  0  0999 V2000
   11.7748   -2.4134   21.4869 O   0  0  0  0  0  0  0  0  0  0  0  0
    8.4571   -5.0280   15.5489 C   0  0  0  0  0  0  0  0  0  0  0  0
   10.6373   -4.1527   22.1338 O   0  0  0  0  0  0  0  0  0  0  0  0
    0.8865  -10.1736   16.8062 N   0  0  0  0  0  0  0  0  0  0  0  0
    0.6363  -11.5685   22.3514 C   0  0  0  0  0  0  0  0  0  0  0  0
    4.9382   -9.8865   18.4135 C   0  0  0  0  0  0  0  0  0  0  0  0
   10.8301   -3.1290   17.5832 C   0  0  0  0  0  0  0  0  0  0  0  0
    6.7438   -7.4973   17.7359 C   0  0  0  0  0  0  0  0  0  0  0  0
    8.5781   -5.9390   18.1797 N   0  0  0  0  0  0  0  0  0  0  0  0
    9.9427   -4.7068   19.6371 C   0  0  0  0  0  0  0  0  0  0  0  0
    0.4794  -11.4482   19.9323 C   0  0  0  0  0  0  0  0  0  0  0  0
    2.8970  -10.2853   17.8533 C   0  0  0  0  0  0  0  0  0  0  0  0
    9.9066   -4.1176   17.2835 C   0  0  0  0  0  0  0  0  0  0  0  0
    9.4685   -4.9581   18.3697 C   0  0  0  0  0  0  0  0  0  0  0  0
    6.5959   -6.5143   15.2606 C   0  0  0  0  0  0  0  0  0  0  0  0
    5.7287   -7.9676   16.9587 C   0  0  0  0  0  0  0  0  0  0  0  0
    7.6332   -6.5041   17.3535 C   0  0  0  0  0  0  0  0  0  0  0  0
    3.8550  -10.6808   18.6840 N   0  0  0  0  0  0  0  0  0  0  0  0
   11.0986   -3.3658   21.2207 C   0  0  0  0  0  0  0  0  0  0  0  0
    1.1160  -11.8135   21.0849 C   0  0  0  0  0  0  0  0  0  0  0  0
    4.7306   -8.9915   17.4326 C   0  0  0  0  0  0  0  0  0  0  0  0
   -1.3063  -10.5114   21.2530 C   0  0  0  0  0  0  0  0  0  0  0  0
    3.4124   -9.2810   17.0553 N   0  0  0  0  0  0  0  0  0  0  0  0
    9.4002   -4.2777   15.9890 C   0  0  0  0  0  0  0  0  0  0  0  0
   11.2565   -2.8190   18.8531 C   0  0  0  0  0  0  0  0  0  0  0  0
    1.3860   -9.2081   16.0076 C   0  0  0  0  0  0  0  0  0  0  0  0
   -0.6049  -10.8692   22.4441 C   0  0  0  0  0  0  0  0  0  0  0  0
    7.5780   -5.9951   16.0165 C   0  0  0  0  0  0  0  0  0  0  0  0
   -0.7359  -10.8450   20.0542 C   0  0  0  0  0  0  0  0  0  0  0  0
    1.0240  -11.7443   18.6054 C   0  0  0  0  0  0  0  0  0  0  0  0
    2.6597   -8.7525   16.1422 C   0  0  0  0  0  0  0  0  0  0  0  0
   10.7697   -3.6382   19.8893 C   0  0  0  0  0  0  0  0  0  0  0  0
    1.5848  -10.7455   17.7777 C   0  0  0  0  0  0  0  0  0  0  0  0
    5.6785   -7.4130   15.7047 C   0  0  0  0  0  0  0  0  0  0  0  0
  1 19  2  0
  2 24  4  0
  2 28  4  0
  3 19  1  0
  4 26  4  0
  4 33  4  0
  5 20  4  0
  5 27  4  0
  6 18  4  0
  6 21  4  0
  7 13  4  0
  7 25  4  0
  8 16  4  0
  8 17  4  0
  9 14  4  0
  9 17  4  0
 10 14  4  0
 10 32  4  0
 11 20  4  0
 11 29  4  0
 11 30  1  0
 12 18  4  0
 12 23  4  0
 12 33  4  0
 13 14  4  0
 13 24  4  0
 15 28  4  0
 15 34  4  0
 16 21  1  0
 16 34  4  0
 17 28  4  0
 19 32  1  0
 21 23  4  0
 22 27  4  0
 22 29  4  0
 23 31  4  0
 25 32  4  0
 26 31  4  0
 30 33  1  0
M  END
$$$$

 Created by Python create_sdf_string function

 34 39  0  0  0  0  0  0  0  0999 V2000
   11.7748   -2.4134   21.4869 O   0  0  0  0  0  0  0  0  0  0  0  0
    8.4571   -5.0280   15.5489 C   0  0  0  0  0  0  0  0  0  0  0  0
   10.6373   -4.1527   22.1338 O   0  0  0  0  0  0  0  0  0  0  0  0
    0.8865  -10.1736   16.8062 N   0  0  0  0  0  0  0  0  0  0  0  0
    0.6363  -11.5685   22.3514 C   0  0  0  0  0  0  0  0  0  0  0  0
    4.9382   -9.8865   18.4135 C   0  0  0  0  0  0  0  0  0  0  0  0
   10.8301   -3.1290   17.5832 C   0  0  0  0  0  0  0  0  0  0  0  0
    6.7438   -7.4973   17.7359 C   0  0  0  0  0  0  0  0  0  0  0  0
    8.5781   -5.9390   18.1797 N   0  0  0  0  0  0  0  0  0  0  0  0
    9.9427   -4.7068   19.6371 C   0  0  0  0  0  0  0  0  0  0  0  0
    0.4794  -11.4482   19.9323 C   0  0  0  0  0  0  0  0  0  0  0  0
    2.8970  -10.2853   17.8533 C   0  0  0  0  0  0  0  0  0  0  0  0
    9.9066   -4.1176   17.2835 C   0  0  0  0  0  0  0  0  0  0  0  0
    9.4685   -4.9581   18.3697 C   0  0  0  0  0  0  0  0  0  0  0  0
    6.5959   -6.5143   15.2606 C   0  0  0  0  0  0  0  0  0  0  0  0
    5.7287   -7.9676   16.9587 C   0  0  0  0  0  0  0  0  0  0  0  0
    7.6332   -6.5041   17.3535 C   0  0  0  0  0  0  0  0  0  0  0  0
    3.8550  -10.6808   18.6840 N   0  0  0  0  0  0  0  0  0  0  0  0
   11.0986   -3.3658   21.2207 C   0  0  0  0  0  0  0  0  0  0  0  0
    1.1160  -11.8135   21.0849 C   0  0  0  0  0  0  0  0  0  0  0  0
    4.7306   -8.9915   17.4326 C   0  0  0  0  0  0  0  0  0  0  0  0
   -1.3063  -10.5114   21.2530 C   0  0  0  0  0  0  0  0  0  0  0  0
    3.4124   -9.2810   17.0553 N   0  0  0  0  0  0  0  0  0  0  0  0
    9.4002   -4.2777   15.9890 C   0  0  0  0  0  0  0  0  0  0  0  0
   11.2565   -2.8190   18.8531 C   0  0  0  0  0  0  0  0  0  0  0  0
    1.3860   -9.2081   16.0076 C   0  0  0  0  0  0  0  0  0  0  0  0
   -0.6049  -10.8692   22.4441 C   0  0  0  0  0  0  0  0  0  0  0  0
    7.5780   -5.9951   16.0165 C   0  0  0  0  0  0  0  0  0  0  0  0
   -0.7359  -10.8450   20.0542 C   0  0  0  0  0  0  0  0  0  0  0  0
    1.0240  -11.7443   18.6054 C   0  0  0  0  0  0  0  0  0  0  0  0
    2.6597   -8.7525   16.1422 C   0  0  0  0  0  0  0  0  0  0  0  0
   10.7697   -3.6382   19.8893 C   0  0  0  0  0  0  0  0  0  0  0  0
    1.5848  -10.7455   17.7777 C   0  0  0  0  0  0  0  0  0  0  0  0
    5.6785   -7.4130   15.7047 C   0  0  0  0  0  0  0  0  0  0  0  0
  1 19  2  0
  2 24  4  0
  2 28  4  0
  3 19  1  0
  4 26  4  0
  4 33  4  0
  5 20  4  0
  5 27  4  0
  6 18  4  0
  6 21  4  0
  7 13  4  0
  7 25  4  0
  8 16  4  0
  8 17  4  0
  9 14  4  0
  9 17  4  0
 10 14  4  0
 10 32  4  0
 11 20  4  0
 11 29  4  0
 11 30  1  0
 12 18  4  0
 12 23  4  0
 12 33  4  0
 13 14  4  0
 13 24  4  0
 15 28  4  0
 15 34  4  0
 16 21  1  0
 16 34  4  0
 17 28  4  0
 19 32  1  0
 21 23  4  0
 22 27  4  0
 22 29  4  0
 23 31  4  0
 25 32  4  0
 26 31  4  0
 30 33  1  0
M  END
$$$$

 Created by Python create_sdf_string function

 34 39  0  0  0  0  0  0  0  0999 V2000
   11.7748   -2.4134   21.4869 O   0  0  0  0  0  0  0  0  0  0  0  0
    8.4571   -5.0280   15.5489 C   0  0  0  0  0  0  0  0  0  0  0  0
   10.6373   -4.1527   22.1338 O   0  0  0  0  0  0  0  0  0  0  0  0
    0.8865  -10.1736   16.8062 N   0  0  0  0  0  0  0  0  0  0  0  0
    0.6363  -11.5685   22.3514 C   0  0  0  0  0  0  0  0  0  0  0  0
    4.9382   -9.8865   18.4135 C   0  0  0  0  0  0  0  0  0  0  0  0
   10.8301   -3.1290   17.5832 C   0  0  0  0  0  0  0  0  0  0  0  0
    6.7438   -7.4973   17.7359 C   0  0  0  0  0  0  0  0  0  0  0  0
    8.5781   -5.9390   18.1797 N   0  0  0  0  0  0  0  0  0  0  0  0
    9.9427   -4.7068   19.6371 C   0  0  0  0  0  0  0  0  0  0  0  0
    0.4794  -11.4482   19.9323 C   0  0  0  0  0  0  0  0  0  0  0  0
    2.8970  -10.2853   17.8533 C   0  0  0  0  0  0  0  0  0  0  0  0
    9.9066   -4.1176   17.2835 C   0  0  0  0  0  0  0  0  0  0  0  0
    9.4685   -4.9581   18.3697 C   0  0  0  0  0  0  0  0  0  0  0  0
    6.5959   -6.5143   15.2606 C   0  0  0  0  0  0  0  0  0  0  0  0
    5.7287   -7.9676   16.9587 C   0  0  0  0  0  0  0  0  0  0  0  0
    7.6332   -6.5041   17.3535 C   0  0  0  0  0  0  0  0  0  0  0  0
    3.8550  -10.6808   18.6840 N   0  0  0  0  0  0  0  0  0  0  0  0
   11.0986   -3.3658   21.2207 C   0  0  0  0  0  0  0  0  0  0  0  0
    1.1160  -11.8135   21.0849 C   0  0  0  0  0  0  0  0  0  0  0  0
    4.7306   -8.9915   17.4326 C   0  0  0  0  0  0  0  0  0  0  0  0
   -1.3063  -10.5114   21.2530 C   0  0  0  0  0  0  0  0  0  0  0  0
    3.4124   -9.2810   17.0553 N   0  0  0  0  0  0  0  0  0  0  0  0
    9.4002   -4.2777   15.9890 C   0  0  0  0  0  0  0  0  0  0  0  0
   11.2565   -2.8190   18.8531 C   0  0  0  0  0  0  0  0  0  0  0  0
    1.3860   -9.2081   16.0076 C   0  0  0  0  0  0  0  0  0  0  0  0
   -0.6049  -10.8692   22.4441 C   0  0  0  0  0  0  0  0  0  0  0  0
    7.5780   -5.9951   16.0165 C   0  0  0  0  0  0  0  0  0  0  0  0
   -0.7359  -10.8450   20.0542 C   0  0  0  0  0  0  0  0  0  0  0  0
    1.0240  -11.7443   18.6054 C   0  0  0  0  0  0  0  0  0  0  0  0
    2.6597   -8.7525   16.1422 C   0  0  0  0  0  0  0  0  0  0  0  0
   10.7697   -3.6382   19.8893 C   0  0  0  0  0  0  0  0  0  0  0  0
    1.5848  -10.7455   17.7777 C   0  0  0  0  0  0  0  0  0  0  0  0
    5.6785   -7.4130   15.7047 C   0  0  0  0  0  0  0  0  0  0  0  0
  1 19  2  0
  2 24  4  0
  2 28  4  0
  3 19  1  0
  4 26  4  0
  4 33  4  0
  5 20  4  0
  5 27  4  0
  6 18  4  0
  6 21  4  0
  7 13  4  0
  7 25  4  0
  8 16  4  0
  8 17  4  0
  9 14  4  0
  9 17  4  0
 10 14  4  0
 10 32  4  0
 11 20  4  0
 11 29  4  0
 11 30  1  0
 12 18  4  0
 12 23  4  0
 12 33  4  0
 13 14  4  0
 13 24  4  0
 15 28  4  0
 15 34  4  0
 16 21  1  0
 16 34  4  0
 17 28  4  0
 19 32  1  0
 21 23  4  0
 22 27  4  0
 22 29  4  0
 23 31  4  0
 25 32  4  0
 26 31  4  0
 30 33  1  0
M  END
$$$$

 Created by Python create_sdf_string function

 34 39  0  0  0  0  0  0  0  0999 V2000
   11.7748   -2.4134   21.4869 O   0  0  0  0  0  0  0  0  0  0  0  0
    8.4571   -5.0280   15.5489 C   0  0  0  0  0  0  0  0  0  0  0  0
   10.6373   -4.1527   22.1338 O   0  0  0  0  0  0  0  0  0  0  0  0
    0.8865  -10.1736   16.8062 N   0  0  0  0  0  0  0  0  0  0  0  0
    0.6363  -11.5685   22.3514 C   0  0  0  0  0  0  0  0  0  0  0  0
    4.9382   -9.8865   18.4135 C   0  0  0  0  0  0  0  0  0  0  0  0
   10.8301   -3.1290   17.5832 C   0  0  0  0  0  0  0  0  0  0  0  0
    6.7438   -7.4973   17.7359 C   0  0  0  0  0  0  0  0  0  0  0  0
    8.5781   -5.9390   18.1797 N   0  0  0  0  0  0  0  0  0  0  0  0
    9.9427   -4.7068   19.6371 C   0  0  0  0  0  0  0  0  0  0  0  0
    0.4794  -11.4482   19.9323 C   0  0  0  0  0  0  0  0  0  0  0  0
    2.8970  -10.2853   17.8533 C   0  0  0  0  0  0  0  0  0  0  0  0
    9.9066   -4.1176   17.2835 C   0  0  0  0  0  0  0  0  0  0  0  0
    9.4685   -4.9581   18.3697 C   0  0  0  0  0  0  0  0  0  0  0  0
    6.5959   -6.5143   15.2606 C   0  0  0  0  0  0  0  0  0  0  0  0
    5.7287   -7.9676   16.9587 C   0  0  0  0  0  0  0  0  0  0  0  0
    7.6332   -6.5041   17.3535 C   0  0  0  0  0  0  0  0  0  0  0  0
    3.8550  -10.6808   18.6840 N   0  0  0  0  0  0  0  0  0  0  0  0
   11.0986   -3.3658   21.2207 C   0  0  0  0  0  0  0  0  0  0  0  0
    1.1160  -11.8135   21.0849 C   0  0  0  0  0  0  0  0  0  0  0  0
    4.7306   -8.9915   17.4326 C   0  0  0  0  0  0  0  0  0  0  0  0
   -1.3063  -10.5114   21.2530 C   0  0  0  0  0  0  0  0  0  0  0  0
    3.4124   -9.2810   17.0553 N   0  0  0  0  0  0  0  0  0  0  0  0
    9.4002   -4.2777   15.9890 C   0  0  0  0  0  0  0  0  0  0  0  0
   11.2565   -2.8190   18.8531 C   0  0  0  0  0  0  0  0  0  0  0  0
    1.3860   -9.2081   16.0076 C   0  0  0  0  0  0  0  0  0  0  0  0
   -0.6049  -10.8692   22.4441 C   0  0  0  0  0  0  0  0  0  0  0  0
    7.5780   -5.9951   16.0165 C   0  0  0  0  0  0  0  0  0  0  0  0
   -0.7359  -10.8450   20.0542 C   0  0  0  0  0  0  0  0  0  0  0  0
    1.0240  -11.7443   18.6054 C   0  0  0  0  0  0  0  0  0  0  0  0
    2.6597   -8.7525   16.1422 C   0  0  0  0  0  0  0  0  0  0  0  0
   10.7697   -3.6382   19.8893 C   0  0  0  0  0  0  0  0  0  0  0  0
    1.5848  -10.7455   17.7777 C   0  0  0  0  0  0  0  0  0  0  0  0
    5.6785   -7.4130   15.7047 C   0  0  0  0  0  0  0  0  0  0  0  0
  1 19  2  0
  2 24  4  0
  2 28  4  0
  3 19  1  0
  4 26  4  0
  4 33  4  0
  5 20  4  0
  5 27  4  0
  6 18  4  0
  6 21  4  0
  7 13  4  0
  7 25  4  0
  8 16  4  0
  8 17  4  0
  9 14  4  0
  9 17  4  0
 10 14  4  0
 10 32  4  0
 11 20  4  0
 11 29  4  0
 11 30  1  0
 12 18  4  0
 12 23  4  0
 12 33  4  0
 13 14  4  0
 13 24  4  0
 15 28  4  0
 15 34  4  0
 16 21  1  0
 16 34  4  0
 17 28  4  0
 19 32  1  0
 21 23  4  0
 22 27  4  0
 22 29  4  0
 23 31  4  0
 25 32  4  0
 26 31  4  0
 30 33  1  0
M  END
$$$$

 Created by Python create_sdf_string function

 34 39  0  0  0  0  0  0  0  0999 V2000
   11.7748   -2.4134   21.4869 O   0  0  0  0  0  0  0  0  0  0  0  0
    8.4571   -5.0280   15.5489 C   0  0  0  0  0  0  0  0  0  0  0  0
   10.6373   -4.1527   22.1338 O   0  0  0  0  0  0  0  0  0  0  0  0
    0.8865  -10.1736   16.8062 N   0  0  0  0  0  0  0  0  0  0  0  0
    0.6363  -11.5685   22.3514 C   0  0  0  0  0  0  0  0  0  0  0  0
    4.9382   -9.8865   18.4135 C   0  0  0  0  0  0  0  0  0  0  0  0
   10.8301   -3.1290   17.5832 C   0  0  0  0  0  0  0  0  0  0  0  0
    6.7438   -7.4973   17.7359 C   0  0  0  0  0  0  0  0  0  0  0  0
    8.5781   -5.9390   18.1797 N   0  0  0  0  0  0  0  0  0  0  0  0
    9.9427   -4.7068   19.6371 C   0  0  0  0  0  0  0  0  0  0  0  0
    0.4794  -11.4482   19.9323 C   0  0  0  0  0  0  0  0  0  0  0  0
    2.8970  -10.2853   17.8533 C   0  0  0  0  0  0  0  0  0  0  0  0
    9.9066   -4.1176   17.2835 C   0  0  0  0  0  0  0  0  0  0  0  0
    9.4685   -4.9581   18.3697 C   0  0  0  0  0  0  0  0  0  0  0  0
    6.5959   -6.5143   15.2606 C   0  0  0  0  0  0  0  0  0  0  0  0
    5.7287   -7.9676   16.9587 C   0  0  0  0  0  0  0  0  0  0  0  0
    7.6332   -6.5041   17.3535 C   0  0  0  0  0  0  0  0  0  0  0  0
    3.8550  -10.6808   18.6840 N   0  0  0  0  0  0  0  0  0  0  0  0
   11.0986   -3.3658   21.2207 C   0  0  0  0  0  0  0  0  0  0  0  0
    1.1160  -11.8135   21.0849 C   0  0  0  0  0  0  0  0  0  0  0  0
    4.7306   -8.9915   17.4326 C   0  0  0  0  0  0  0  0  0  0  0  0
   -1.3063  -10.5114   21.2530 C   0  0  0  0  0  0  0  0  0  0  0  0
    3.4124   -9.2810   17.0553 N   0  0  0  0  0  0  0  0  0  0  0  0
    9.4002   -4.2777   15.9890 C   0  0  0  0  0  0  0  0  0  0  0  0
   11.2565   -2.8190   18.8531 C   0  0  0  0  0  0  0  0  0  0  0  0
    1.3860   -9.2081   16.0076 C   0  0  0  0  0  0  0  0  0  0  0  0
   -0.6049  -10.8692   22.4441 C   0  0  0  0  0  0  0  0  0  0  0  0
    7.5780   -5.9951   16.0165 C   0  0  0  0  0  0  0  0  0  0  0  0
   -0.7359  -10.8450   20.0542 C   0  0  0  0  0  0  0  0  0  0  0  0
    1.0240  -11.7443   18.6054 C   0  0  0  0  0  0  0  0  0  0  0  0
    2.6597   -8.7525   16.1422 C   0  0  0  0  0  0  0  0  0  0  0  0
   10.7697   -3.6382   19.8893 C   0  0  0  0  0  0  0  0  0  0  0  0
    1.5848  -10.7455   17.7777 C   0  0  0  0  0  0  0  0  0  0  0  0
    5.6785   -7.4130   15.7047 C   0  0  0  0  0  0  0  0  0  0  0  0
  1 19  2  0
  2 24  4  0
  2 28  4  0
  3 19  1  0
  4 26  4  0
  4 33  4  0
  5 20  4  0
  5 27  4  0
  6 18  4  0
  6 21  4  0
  7 13  4  0
  7 25  4  0
  8 16  4  0
  8 17  4  0
  9 14  4  0
  9 17  4  0
 10 14  4  0
 10 32  4  0
 11 20  4  0
 11 29  4  0
 11 30  1  0
 12 18  4  0
 12 23  4  0
 12 33  4  0
 13 14  4  0
 13 24  4  0
 15 28  4  0
 15 34  4  0
 16 21  1  0
 16 34  4  0
 17 28  4  0
 19 32  1  0
 21 23  4  0
 22 27  4  0
 22 29  4  0
 23 31  4  0
 25 32  4  0
 26 31  4  0
 30 33  1  0
M  END
$$$$

 Created by Python create_sdf_string function

 34 39  0  0  0  0  0  0  0  0999 V2000
   11.7748   -2.4134   21.4869 O   0  0  0  0  0  0  0  0  0  0  0  0
    8.4571   -5.0280   15.5489 C   0  0  0  0  0  0  0  0  0  0  0  0
   10.6373   -4.1527   22.1338 O   0  0  0  0  0  0  0  0  0  0  0  0
    0.8865  -10.1736   16.8062 N   0  0  0  0  0  0  0  0  0  0  0  0
    0.6363  -11.5685   22.3514 C   0  0  0  0  0  0  0  0  0  0  0  0
    4.9382   -9.8865   18.4135 C   0  0  0  0  0  0  0  0  0  0  0  0
   10.8301   -3.1290   17.5832 C   0  0  0  0  0  0  0  0  0  0  0  0
    6.7438   -7.4973   17.7359 C   0  0  0  0  0  0  0  0  0  0  0  0
    8.5781   -5.9390   18.1797 N   0  0  0  0  0  0  0  0  0  0  0  0
    9.9427   -4.7068   19.6371 C   0  0  0  0  0  0  0  0  0  0  0  0
    0.4794  -11.4482   19.9323 C   0  0  0  0  0  0  0  0  0  0  0  0
    2.8970  -10.2853   17.8533 C   0  0  0  0  0  0  0  0  0  0  0  0
    9.9066   -4.1176   17.2835 C   0  0  0  0  0  0  0  0  0  0  0  0
    9.4685   -4.9581   18.3697 C   0  0  0  0  0  0  0  0  0  0  0  0
    6.5959   -6.5143   15.2606 C   0  0  0  0  0  0  0  0  0  0  0  0
    5.7287   -7.9676   16.9587 C   0  0  0  0  0  0  0  0  0  0  0  0
    7.6332   -6.5041   17.3535 C   0  0  0  0  0  0  0  0  0  0  0  0
    3.8550  -10.6808   18.6840 N   0  0  0  0  0  0  0  0  0  0  0  0
   11.0986   -3.3658   21.2207 C   0  0  0  0  0  0  0  0  0  0  0  0
    1.1160  -11.8135   21.0849 C   0  0  0  0  0  0  0  0  0  0  0  0
    4.7306   -8.9915   17.4326 C   0  0  0  0  0  0  0  0  0  0  0  0
   -1.3063  -10.5114   21.2530 C   0  0  0  0  0  0  0  0  0  0  0  0
    3.4124   -9.2810   17.0553 N   0  0  0  0  0  0  0  0  0  0  0  0
    9.4002   -4.2777   15.9890 C   0  0  0  0  0  0  0  0  0  0  0  0
   11.2565   -2.8190   18.8531 C   0  0  0  0  0  0  0  0  0  0  0  0
    1.3860   -9.2081   16.0076 C   0  0  0  0  0  0  0  0  0  0  0  0
   -0.6049  -10.8692   22.4441 C   0  0  0  0  0  0  0  0  0  0  0  0
    7.5780   -5.9951   16.0165 C   0  0  0  0  0  0  0  0  0  0  0  0
   -0.7359  -10.8450   20.0542 C   0  0  0  0  0  0  0  0  0  0  0  0
    1.0240  -11.7443   18.6054 C   0  0  0  0  0  0  0  0  0  0  0  0
    2.6597   -8.7525   16.1422 C   0  0  0  0  0  0  0  0  0  0  0  0
   10.7697   -3.6382   19.8893 C   0  0  0  0  0  0  0  0  0  0  0  0
    1.5848  -10.7455   17.7777 C   0  0  0  0  0  0  0  0  0  0  0  0
    5.6785   -7.4130   15.7047 C   0  0  0  0  0  0  0  0  0  0  0  0
  1 19  2  0
  2 24  4  0
  2 28  4  0
  3 19  1  0
  4 26  4  0
  4 33  4  0
  5 20  4  0
  5 27  4  0
  6 18  4  0
  6 21  4  0
  7 13  4  0
  7 25  4  0
  8 16  4  0
  8 17  4  0
  9 14  4  0
  9 17  4  0
 10 14  4  0
 10 32  4  0
 11 20  4  0
 11 29  4  0
 11 30  1  0
 12 18  4  0
 12 23  4  0
 12 33  4  0
 13 14  4  0
 13 24  4  0
 15 28  4  0
 15 34  4  0
 16 21  1  0
 16 34  4  0
 17 28  4  0
 19 32  1  0
 21 23  4  0
 22 27  4  0
 22 29  4  0
 23 31  4  0
 25 32  4  0
 26 31  4  0
 30 33  1  0
M  END
$$$$

 Created by Python create_sdf_string function

 34 39  0  0  0  0  0  0  0  0999 V2000
   11.7748   -2.4134   21.4869 O   0  0  0  0  0  0  0  0  0  0  0  0
    8.4571   -5.0280   15.5489 C   0  0  0  0  0  0  0  0  0  0  0  0
   10.6373   -4.1527   22.1338 O   0  0  0  0  0  0  0  0  0  0  0  0
    0.8865  -10.1736   16.8062 N   0  0  0  0  0  0  0  0  0  0  0  0
    0.6363  -11.5685   22.3514 C   0  0  0  0  0  0  0  0  0  0  0  0
    4.9382   -9.8865   18.4135 C   0  0  0  0  0  0  0  0  0  0  0  0
   10.8301   -3.1290   17.5832 C   0  0  0  0  0  0  0  0  0  0  0  0
    6.7438   -7.4973   17.7359 C   0  0  0  0  0  0  0  0  0  0  0  0
    8.5781   -5.9390   18.1797 N   0  0  0  0  0  0  0  0  0  0  0  0
    9.9427   -4.7068   19.6371 C   0  0  0  0  0  0  0  0  0  0  0  0
    0.4794  -11.4482   19.9323 C   0  0  0  0  0  0  0  0  0  0  0  0
    2.8970  -10.2853   17.8533 C   0  0  0  0  0  0  0  0  0  0  0  0
    9.9066   -4.1176   17.2835 C   0  0  0  0  0  0  0  0  0  0  0  0
    9.4685   -4.9581   18.3697 C   0  0  0  0  0  0  0  0  0  0  0  0
    6.5959   -6.5143   15.2606 C   0  0  0  0  0  0  0  0  0  0  0  0
    5.7287   -7.9676   16.9587 C   0  0  0  0  0  0  0  0  0  0  0  0
    7.6332   -6.5041   17.3535 C   0  0  0  0  0  0  0  0  0  0  0  0
    3.8550  -10.6808   18.6840 N   0  0  0  0  0  0  0  0  0  0  0  0
   11.0986   -3.3658   21.2207 C   0  0  0  0  0  0  0  0  0  0  0  0
    1.1160  -11.8135   21.0849 C   0  0  0  0  0  0  0  0  0  0  0  0
    4.7306   -8.9915   17.4326 C   0  0  0  0  0  0  0  0  0  0  0  0
   -1.3063  -10.5114   21.2530 C   0  0  0  0  0  0  0  0  0  0  0  0
    3.4124   -9.2810   17.0553 N   0  0  0  0  0  0  0  0  0  0  0  0
    9.4002   -4.2777   15.9890 C   0  0  0  0  0  0  0  0  0  0  0  0
   11.2565   -2.8190   18.8531 C   0  0  0  0  0  0  0  0  0  0  0  0
    1.3860   -9.2081   16.0076 C   0  0  0  0  0  0  0  0  0  0  0  0
   -0.6049  -10.8692   22.4441 C   0  0  0  0  0  0  0  0  0  0  0  0
    7.5780   -5.9951   16.0165 C   0  0  0  0  0  0  0  0  0  0  0  0
   -0.7359  -10.8450   20.0542 C   0  0  0  0  0  0  0  0  0  0  0  0
    1.0240  -11.7443   18.6054 C   0  0  0  0  0  0  0  0  0  0  0  0
    2.6597   -8.7525   16.1422 C   0  0  0  0  0  0  0  0  0  0  0  0
   10.7697   -3.6382   19.8893 C   0  0  0  0  0  0  0  0  0  0  0  0
    1.5848  -10.7455   17.7777 C   0  0  0  0  0  0  0  0  0  0  0  0
    5.6785   -7.4130   15.7047 C   0  0  0  0  0  0  0  0  0  0  0  0
  1 19  2  0
  2 24  4  0
  2 28  4  0
  3 19  1  0
  4 26  4  0
  4 33  4  0
  5 20  4  0
  5 27  4  0
  6 18  4  0
  6 21  4  0
  7 13  4  0
  7 25  4  0
  8 16  4  0
  8 17  4  0
  9 14  4  0
  9 17  4  0
 10 14  4  0
 10 32  4  0
 11 20  4  0
 11 29  4  0
 11 30  1  0
 12 18  4  0
 12 23  4  0
 12 33  4  0
 13 14  4  0
 13 24  4  0
 15 28  4  0
 15 34  4  0
 16 21  1  0
 16 34  4  0
 17 28  4  0
 19 32  1  0
 21 23  4  0
 22 27  4  0
 22 29  4  0
 23 31  4  0
 25 32  4  0
 26 31  4  0
 30 33  1  0
M  END
$$$$

 Created by Python create_sdf_string function

 34 39  0  0  0  0  0  0  0  0999 V2000
   11.7748   -2.4134   21.4869 O   0  0  0  0  0  0  0  0  0  0  0  0
    8.4571   -5.0280   15.5489 C   0  0  0  0  0  0  0  0  0  0  0  0
   10.6373   -4.1527   22.1338 O   0  0  0  0  0  0  0  0  0  0  0  0
    0.8865  -10.1736   16.8062 N   0  0  0  0  0  0  0  0  0  0  0  0
    0.6363  -11.5685   22.3514 C   0  0  0  0  0  0  0  0  0  0  0  0
    4.9382   -9.8865   18.4135 C   0  0  0  0  0  0  0  0  0  0  0  0
   10.8301   -3.1290   17.5832 C   0  0  0  0  0  0  0  0  0  0  0  0
    6.7438   -7.4973   17.7359 C   0  0  0  0  0  0  0  0  0  0  0  0
    8.5781   -5.9390   18.1797 N   0  0  0  0  0  0  0  0  0  0  0  0
    9.9427   -4.7068   19.6371 C   0  0  0  0  0  0  0  0  0  0  0  0
    0.4794  -11.4482   19.9323 C   0  0  0  0  0  0  0  0  0  0  0  0
    2.8970  -10.2853   17.8533 C   0  0  0  0  0  0  0  0  0  0  0  0
    9.9066   -4.1176   17.2835 C   0  0  0  0  0  0  0  0  0  0  0  0
    9.4685   -4.9581   18.3697 C   0  0  0  0  0  0  0  0  0  0  0  0
    6.5959   -6.5143   15.2606 C   0  0  0  0  0  0  0  0  0  0  0  0
    5.7287   -7.9676   16.9587 C   0  0  0  0  0  0  0  0  0  0  0  0
    7.6332   -6.5041   17.3535 C   0  0  0  0  0  0  0  0  0  0  0  0
    3.8550  -10.6808   18.6840 N   0  0  0  0  0  0  0  0  0  0  0  0
   11.0986   -3.3658   21.2207 C   0  0  0  0  0  0  0  0  0  0  0  0
    1.1160  -11.8135   21.0849 C   0  0  0  0  0  0  0  0  0  0  0  0
    4.7306   -8.9915   17.4326 C   0  0  0  0  0  0  0  0  0  0  0  0
   -1.3063  -10.5114   21.2530 C   0  0  0  0  0  0  0  0  0  0  0  0
    3.4124   -9.2810   17.0553 N   0  0  0  0  0  0  0  0  0  0  0  0
    9.4002   -4.2777   15.9890 C   0  0  0  0  0  0  0  0  0  0  0  0
   11.2565   -2.8190   18.8531 C   0  0  0  0  0  0  0  0  0  0  0  0
    1.3860   -9.2081   16.0076 C   0  0  0  0  0  0  0  0  0  0  0  0
   -0.6049  -10.8692   22.4441 C   0  0  0  0  0  0  0  0  0  0  0  0
    7.5780   -5.9951   16.0165 C   0  0  0  0  0  0  0  0  0  0  0  0
   -0.7359  -10.8450   20.0542 C   0  0  0  0  0  0  0  0  0  0  0  0
    1.0240  -11.7443   18.6054 C   0  0  0  0  0  0  0  0  0  0  0  0
    2.6597   -8.7525   16.1422 C   0  0  0  0  0  0  0  0  0  0  0  0
   10.7697   -3.6382   19.8893 C   0  0  0  0  0  0  0  0  0  0  0  0
    1.5848  -10.7455   17.7777 C   0  0  0  0  0  0  0  0  0  0  0  0
    5.6785   -7.4130   15.7047 C   0  0  0  0  0  0  0  0  0  0  0  0
  1 19  2  0
  2 24  4  0
  2 28  4  0
  3 19  1  0
  4 26  4  0
  4 33  4  0
  5 20  4  0
  5 27  4  0
  6 18  4  0
  6 21  4  0
  7 13  4  0
  7 25  4  0
  8 16  4  0
  8 17  4  0
  9 14  4  0
  9 17  4  0
 10 14  4  0
 10 32  4  0
 11 20  4  0
 11 29  4  0
 11 30  1  0
 12 18  4  0
 12 23  4  0
 12 33  4  0
 13 14  4  0
 13 24  4  0
 15 28  4  0
 15 34  4  0
 16 21  1  0
 16 34  4  0
 17 28  4  0
 19 32  1  0
 21 23  4  0
 22 27  4  0
 22 29  4  0
 23 31  4  0
 25 32  4  0
 26 31  4  0
 30 33  1  0
M  END
$$$$

 Created by Python create_sdf_string function

 34 39  0  0  0  0  0  0  0  0999 V2000
   11.7748   -2.4134   21.4869 O   0  0  0  0  0  0  0  0  0  0  0  0
    8.4571   -5.0280   15.5489 C   0  0  0  0  0  0  0  0  0  0  0  0
   10.6373   -4.1527   22.1338 O   0  0  0  0  0  0  0  0  0  0  0  0
    0.8865  -10.1736   16.8062 N   0  0  0  0  0  0  0  0  0  0  0  0
    0.6363  -11.5685   22.3514 C   0  0  0  0  0  0  0  0  0  0  0  0
    4.9382   -9.8865   18.4135 C   0  0  0  0  0  0  0  0  0  0  0  0
   10.8301   -3.1290   17.5832 C   0  0  0  0  0  0  0  0  0  0  0  0
    6.7438   -7.4973   17.7359 C   0  0  0  0  0  0  0  0  0  0  0  0
    8.5781   -5.9390   18.1797 N   0  0  0  0  0  0  0  0  0  0  0  0
    9.9427   -4.7068   19.6371 C   0  0  0  0  0  0  0  0  0  0  0  0
    0.4794  -11.4482   19.9323 C   0  0  0  0  0  0  0  0  0  0  0  0
    2.8970  -10.2853   17.8533 C   0  0  0  0  0  0  0  0  0  0  0  0
    9.9066   -4.1176   17.2835 C   0  0  0  0  0  0  0  0  0  0  0  0
    9.4685   -4.9581   18.3697 C   0  0  0  0  0  0  0  0  0  0  0  0
    6.5959   -6.5143   15.2606 C   0  0  0  0  0  0  0  0  0  0  0  0
    5.7287   -7.9676   16.9587 C   0  0  0  0  0  0  0  0  0  0  0  0
    7.6332   -6.5041   17.3535 C   0  0  0  0  0  0  0  0  0  0  0  0
    3.8550  -10.6808   18.6840 N   0  0  0  0  0  0  0  0  0  0  0  0
   11.0986   -3.3658   21.2207 C   0  0  0  0  0  0  0  0  0  0  0  0
    1.1160  -11.8135   21.0849 C   0  0  0  0  0  0  0  0  0  0  0  0
    4.7306   -8.9915   17.4326 C   0  0  0  0  0  0  0  0  0  0  0  0
   -1.3063  -10.5114   21.2530 C   0  0  0  0  0  0  0  0  0  0  0  0
    3.4124   -9.2810   17.0553 N   0  0  0  0  0  0  0  0  0  0  0  0
    9.4002   -4.2777   15.9890 C   0  0  0  0  0  0  0  0  0  0  0  0
   11.2565   -2.8190   18.8531 C   0  0  0  0  0  0  0  0  0  0  0  0
    1.3860   -9.2081   16.0076 C   0  0  0  0  0  0  0  0  0  0  0  0
   -0.6049  -10.8692   22.4441 C   0  0  0  0  0  0  0  0  0  0  0  0
    7.5780   -5.9951   16.0165 C   0  0  0  0  0  0  0  0  0  0  0  0
   -0.7359  -10.8450   20.0542 C   0  0  0  0  0  0  0  0  0  0  0  0
    1.0240  -11.7443   18.6054 C   0  0  0  0  0  0  0  0  0  0  0  0
    2.6597   -8.7525   16.1422 C   0  0  0  0  0  0  0  0  0  0  0  0
   10.7697   -3.6382   19.8893 C   0  0  0  0  0  0  0  0  0  0  0  0
    1.5848  -10.7455   17.7777 C   0  0  0  0  0  0  0  0  0  0  0  0
    5.6785   -7.4130   15.7047 C   0  0  0  0  0  0  0  0  0  0  0  0
  1 19  2  0
  2 24  4  0
  2 28  4  0
  3 19  1  0
  4 26  4  0
  4 33  4  0
  5 20  4  0
  5 27  4  0
  6 18  4  0
  6 21  4  0
  7 13  4  0
  7 25  4  0
  8 16  4  0
  8 17  4  0
  9 14  4  0
  9 17  4  0
 10 14  4  0
 10 32  4  0
 11 20  4  0
 11 29  4  0
 11 30  1  0
 12 18  4  0
 12 23  4  0
 12 33  4  0
 13 14  4  0
 13 24  4  0
 15 28  4  0
 15 34  4  0
 16 21  1  0
 16 34  4  0
 17 28  4  0
 19 32  1  0
 21 23  4  0
 22 27  4  0
 22 29  4  0
 23 31  4  0
 25 32  4  0
 26 31  4  0
 30 33  1  0
M  END
$$$$

 Created by Python create_sdf_string function

 34 39  0  0  0  0  0  0  0  0999 V2000
   11.7748   -2.4134   21.4869 O   0  0  0  0  0  0  0  0  0  0  0  0
    8.4571   -5.0280   15.5489 C   0  0  0  0  0  0  0  0  0  0  0  0
   10.6373   -4.1527   22.1338 O   0  0  0  0  0  0  0  0  0  0  0  0
    0.8865  -10.1736   16.8062 N   0  0  0  0  0  0  0  0  0  0  0  0
    0.6363  -11.5685   22.3514 C   0  0  0  0  0  0  0  0  0  0  0  0
    4.9382   -9.8865   18.4135 C   0  0  0  0  0  0  0  0  0  0  0  0
   10.8301   -3.1290   17.5832 C   0  0  0  0  0  0  0  0  0  0  0  0
    6.7438   -7.4973   17.7359 C   0  0  0  0  0  0  0  0  0  0  0  0
    8.5781   -5.9390   18.1797 N   0  0  0  0  0  0  0  0  0  0  0  0
    9.9427   -4.7068   19.6371 C   0  0  0  0  0  0  0  0  0  0  0  0
    0.4794  -11.4482   19.9323 C   0  0  0  0  0  0  0  0  0  0  0  0
    2.8970  -10.2853   17.8533 C   0  0  0  0  0  0  0  0  0  0  0  0
    9.9066   -4.1176   17.2835 C   0  0  0  0  0  0  0  0  0  0  0  0
    9.4685   -4.9581   18.3697 C   0  0  0  0  0  0  0  0  0  0  0  0
    6.5959   -6.5143   15.2606 C   0  0  0  0  0  0  0  0  0  0  0  0
    5.7287   -7.9676   16.9587 C   0  0  0  0  0  0  0  0  0  0  0  0
    7.6332   -6.5041   17.3535 C   0  0  0  0  0  0  0  0  0  0  0  0
    3.8550  -10.6808   18.6840 N   0  0  0  0  0  0  0  0  0  0  0  0
   11.0986   -3.3658   21.2207 C   0  0  0  0  0  0  0  0  0  0  0  0
    1.1160  -11.8135   21.0849 C   0  0  0  0  0  0  0  0  0  0  0  0
    4.7306   -8.9915   17.4326 C   0  0  0  0  0  0  0  0  0  0  0  0
   -1.3063  -10.5114   21.2530 C   0  0  0  0  0  0  0  0  0  0  0  0
    3.4124   -9.2810   17.0553 N   0  0  0  0  0  0  0  0  0  0  0  0
    9.4002   -4.2777   15.9890 C   0  0  0  0  0  0  0  0  0  0  0  0
   11.2565   -2.8190   18.8531 C   0  0  0  0  0  0  0  0  0  0  0  0
    1.3860   -9.2081   16.0076 C   0  0  0  0  0  0  0  0  0  0  0  0
   -0.6049  -10.8692   22.4441 C   0  0  0  0  0  0  0  0  0  0  0  0
    7.5780   -5.9951   16.0165 C   0  0  0  0  0  0  0  0  0  0  0  0
   -0.7359  -10.8450   20.0542 C   0  0  0  0  0  0  0  0  0  0  0  0
    1.0240  -11.7443   18.6054 C   0  0  0  0  0  0  0  0  0  0  0  0
    2.6597   -8.7525   16.1422 C   0  0  0  0  0  0  0  0  0  0  0  0
   10.7697   -3.6382   19.8893 C   0  0  0  0  0  0  0  0  0  0  0  0
    1.5848  -10.7455   17.7777 C   0  0  0  0  0  0  0  0  0  0  0  0
    5.6785   -7.4130   15.7047 C   0  0  0  0  0  0  0  0  0  0  0  0
  1 19  2  0
  2 24  4  0
  2 28  4  0
  3 19  1  0
  4 26  4  0
  4 33  4  0
  5 20  4  0
  5 27  4  0
  6 18  4  0
  6 21  4  0
  7 13  4  0
  7 25  4  0
  8 16  4  0
  8 17  4  0
  9 14  4  0
  9 17  4  0
 10 14  4  0
 10 32  4  0
 11 20  4  0
 11 29  4  0
 11 30  1  0
 12 18  4  0
 12 23  4  0
 12 33  4  0
 13 14  4  0
 13 24  4  0
 15 28  4  0
 15 34  4  0
 16 21  1  0
 16 34  4  0
 17 28  4  0
 19 32  1  0
 21 23  4  0
 22 27  4  0
 22 29  4  0
 23 31  4  0
 25 32  4  0
 26 31  4  0
 30 33  1  0
M  END
$$$$

 Created by Python create_sdf_string function

 34 39  0  0  0  0  0  0  0  0999 V2000
   11.7748   -2.4134   21.4869 O   0  0  0  0  0  0  0  0  0  0  0  0
    8.4571   -5.0280   15.5489 C   0  0  0  0  0  0  0  0  0  0  0  0
   10.6373   -4.1527   22.1338 O   0  0  0  0  0  0  0  0  0  0  0  0
    0.8865  -10.1736   16.8062 N   0  0  0  0  0  0  0  0  0  0  0  0
    0.6363  -11.5685   22.3514 C   0  0  0  0  0  0  0  0  0  0  0  0
    4.9382   -9.8865   18.4135 C   0  0  0  0  0  0  0  0  0  0  0  0
   10.8301   -3.1290   17.5832 C   0  0  0  0  0  0  0  0  0  0  0  0
    6.7438   -7.4973   17.7359 C   0  0  0  0  0  0  0  0  0  0  0  0
    8.5781   -5.9390   18.1797 N   0  0  0  0  0  0  0  0  0  0  0  0
    9.9427   -4.7068   19.6371 C   0  0  0  0  0  0  0  0  0  0  0  0
    0.4794  -11.4482   19.9323 C   0  0  0  0  0  0  0  0  0  0  0  0
    2.8970  -10.2853   17.8533 C   0  0  0  0  0  0  0  0  0  0  0  0
    9.9066   -4.1176   17.2835 C   0  0  0  0  0  0  0  0  0  0  0  0
    9.4685   -4.9581   18.3697 C   0  0  0  0  0  0  0  0  0  0  0  0
    6.5959   -6.5143   15.2606 C   0  0  0  0  0  0  0  0  0  0  0  0
    5.7287   -7.9676   16.9587 C   0  0  0  0  0  0  0  0  0  0  0  0
    7.6332   -6.5041   17.3535 C   0  0  0  0  0  0  0  0  0  0  0  0
    3.8550  -10.6808   18.6840 N   0  0  0  0  0  0  0  0  0  0  0  0
   11.0986   -3.3658   21.2207 C   0  0  0  0  0  0  0  0  0  0  0  0
    1.1160  -11.8135   21.0849 C   0  0  0  0  0  0  0  0  0  0  0  0
    4.7306   -8.9915   17.4326 C   0  0  0  0  0  0  0  0  0  0  0  0
   -1.3063  -10.5114   21.2530 C   0  0  0  0  0  0  0  0  0  0  0  0
    3.4124   -9.2810   17.0553 N   0  0  0  0  0  0  0  0  0  0  0  0
    9.4002   -4.2777   15.9890 C   0  0  0  0  0  0  0  0  0  0  0  0
   11.2565   -2.8190   18.8531 C   0  0  0  0  0  0  0  0  0  0  0  0
    1.3860   -9.2081   16.0076 C   0  0  0  0  0  0  0  0  0  0  0  0
   -0.6049  -10.8692   22.4441 C   0  0  0  0  0  0  0  0  0  0  0  0
    7.5780   -5.9951   16.0165 C   0  0  0  0  0  0  0  0  0  0  0  0
   -0.7359  -10.8450   20.0542 C   0  0  0  0  0  0  0  0  0  0  0  0
    1.0240  -11.7443   18.6054 C   0  0  0  0  0  0  0  0  0  0  0  0
    2.6597   -8.7525   16.1422 C   0  0  0  0  0  0  0  0  0  0  0  0
   10.7697   -3.6382   19.8893 C   0  0  0  0  0  0  0  0  0  0  0  0
    1.5848  -10.7455   17.7777 C   0  0  0  0  0  0  0  0  0  0  0  0
    5.6785   -7.4130   15.7047 C   0  0  0  0  0  0  0  0  0  0  0  0
  1 19  2  0
  2 24  4  0
  2 28  4  0
  3 19  1  0
  4 26  4  0
  4 33  4  0
  5 20  4  0
  5 27  4  0
  6 18  4  0
  6 21  4  0
  7 13  4  0
  7 25  4  0
  8 16  4  0
  8 17  4  0
  9 14  4  0
  9 17  4  0
 10 14  4  0
 10 32  4  0
 11 20  4  0
 11 29  4  0
 11 30  1  0
 12 18  4  0
 12 23  4  0
 12 33  4  0
 13 14  4  0
 13 24  4  0
 15 28  4  0
 15 34  4  0
 16 21  1  0
 16 34  4  0
 17 28  4  0
 19 32  1  0
 21 23  4  0
 22 27  4  0
 22 29  4  0
 23 31  4  0
 25 32  4  0
 26 31  4  0
 30 33  1  0
M  END
$$$$

 Created by Python create_sdf_string function

 34 39  0  0  0  0  0  0  0  0999 V2000
   11.7748   -2.4134   21.4869 O   0  0  0  0  0  0  0  0  0  0  0  0
    8.4571   -5.0280   15.5489 C   0  0  0  0  0  0  0  0  0  0  0  0
   10.6373   -4.1527   22.1338 O   0  0  0  0  0  0  0  0  0  0  0  0
    0.8865  -10.1736   16.8062 N   0  0  0  0  0  0  0  0  0  0  0  0
    0.6363  -11.5685   22.3514 C   0  0  0  0  0  0  0  0  0  0  0  0
    4.9382   -9.8865   18.4135 C   0  0  0  0  0  0  0  0  0  0  0  0
   10.8301   -3.1290   17.5832 C   0  0  0  0  0  0  0  0  0  0  0  0
    6.7438   -7.4973   17.7359 C   0  0  0  0  0  0  0  0  0  0  0  0
    8.5781   -5.9390   18.1797 N   0  0  0  0  0  0  0  0  0  0  0  0
    9.9427   -4.7068   19.6371 C   0  0  0  0  0  0  0  0  0  0  0  0
    0.4794  -11.4482   19.9323 C   0  0  0  0  0  0  0  0  0  0  0  0
    2.8970  -10.2853   17.8533 C   0  0  0  0  0  0  0  0  0  0  0  0
    9.9066   -4.1176   17.2835 C   0  0  0  0  0  0  0  0  0  0  0  0
    9.4685   -4.9581   18.3697 C   0  0  0  0  0  0  0  0  0  0  0  0
    6.5959   -6.5143   15.2606 C   0  0  0  0  0  0  0  0  0  0  0  0
    5.7287   -7.9676   16.9587 C   0  0  0  0  0  0  0  0  0  0  0  0
    7.6332   -6.5041   17.3535 C   0  0  0  0  0  0  0  0  0  0  0  0
    3.8550  -10.6808   18.6840 N   0  0  0  0  0  0  0  0  0  0  0  0
   11.0986   -3.3658   21.2207 C   0  0  0  0  0  0  0  0  0  0  0  0
    1.1160  -11.8135   21.0849 C   0  0  0  0  0  0  0  0  0  0  0  0
    4.7306   -8.9915   17.4326 C   0  0  0  0  0  0  0  0  0  0  0  0
   -1.3063  -10.5114   21.2530 C   0  0  0  0  0  0  0  0  0  0  0  0
    3.4124   -9.2810   17.0553 N   0  0  0  0  0  0  0  0  0  0  0  0
    9.4002   -4.2777   15.9890 C   0  0  0  0  0  0  0  0  0  0  0  0
   11.2565   -2.8190   18.8531 C   0  0  0  0  0  0  0  0  0  0  0  0
    1.3860   -9.2081   16.0076 C   0  0  0  0  0  0  0  0  0  0  0  0
   -0.6049  -10.8692   22.4441 C   0  0  0  0  0  0  0  0  0  0  0  0
    7.5780   -5.9951   16.0165 C   0  0  0  0  0  0  0  0  0  0  0  0
   -0.7359  -10.8450   20.0542 C   0  0  0  0  0  0  0  0  0  0  0  0
    1.0240  -11.7443   18.6054 C   0  0  0  0  0  0  0  0  0  0  0  0
    2.6597   -8.7525   16.1422 C   0  0  0  0  0  0  0  0  0  0  0  0
   10.7697   -3.6382   19.8893 C   0  0  0  0  0  0  0  0  0  0  0  0
    1.5848  -10.7455   17.7777 C   0  0  0  0  0  0  0  0  0  0  0  0
    5.6785   -7.4130   15.7047 C   0  0  0  0  0  0  0  0  0  0  0  0
  1 19  2  0
  2 24  4  0
  2 28  4  0
  3 19  1  0
  4 26  4  0
  4 33  4  0
  5 20  4  0
  5 27  4  0
  6 18  4  0
  6 21  4  0
  7 13  4  0
  7 25  4  0
  8 16  4  0
  8 17  4  0
  9 14  4  0
  9 17  4  0
 10 14  4  0
 10 32  4  0
 11 20  4  0
 11 29  4  0
 11 30  1  0
 12 18  4  0
 12 23  4  0
 12 33  4  0
 13 14  4  0
 13 24  4  0
 15 28  4  0
 15 34  4  0
 16 21  1  0
 16 34  4  0
 17 28  4  0
 19 32  1  0
 21 23  4  0
 22 27  4  0
 22 29  4  0
 23 31  4  0
 25 32  4  0
 26 31  4  0
 30 33  1  0
M  END
$$$$

 Created by Python create_sdf_string function

 34 39  0  0  0  0  0  0  0  0999 V2000
   11.7748   -2.4134   21.4869 O   0  0  0  0  0  0  0  0  0  0  0  0
    8.4571   -5.0280   15.5489 C   0  0  0  0  0  0  0  0  0  0  0  0
   10.6373   -4.1527   22.1338 O   0  0  0  0  0  0  0  0  0  0  0  0
    0.8865  -10.1736   16.8062 N   0  0  0  0  0  0  0  0  0  0  0  0
    0.6363  -11.5685   22.3514 C   0  0  0  0  0  0  0  0  0  0  0  0
    4.9382   -9.8865   18.4135 C   0  0  0  0  0  0  0  0  0  0  0  0
   10.8301   -3.1290   17.5832 C   0  0  0  0  0  0  0  0  0  0  0  0
    6.7438   -7.4973   17.7359 C   0  0  0  0  0  0  0  0  0  0  0  0
    8.5781   -5.9390   18.1797 N   0  0  0  0  0  0  0  0  0  0  0  0
    9.9427   -4.7068   19.6371 C   0  0  0  0  0  0  0  0  0  0  0  0
    0.4794  -11.4482   19.9323 C   0  0  0  0  0  0  0  0  0  0  0  0
    2.8970  -10.2853   17.8533 C   0  0  0  0  0  0  0  0  0  0  0  0
    9.9066   -4.1176   17.2835 C   0  0  0  0  0  0  0  0  0  0  0  0
    9.4685   -4.9581   18.3697 C   0  0  0  0  0  0  0  0  0  0  0  0
    6.5959   -6.5143   15.2606 C   0  0  0  0  0  0  0  0  0  0  0  0
    5.7287   -7.9676   16.9587 C   0  0  0  0  0  0  0  0  0  0  0  0
    7.6332   -6.5041   17.3535 C   0  0  0  0  0  0  0  0  0  0  0  0
    3.8550  -10.6808   18.6840 N   0  0  0  0  0  0  0  0  0  0  0  0
   11.0986   -3.3658   21.2207 C   0  0  0  0  0  0  0  0  0  0  0  0
    1.1160  -11.8135   21.0849 C   0  0  0  0  0  0  0  0  0  0  0  0
    4.7306   -8.9915   17.4326 C   0  0  0  0  0  0  0  0  0  0  0  0
   -1.3063  -10.5114   21.2530 C   0  0  0  0  0  0  0  0  0  0  0  0
    3.4124   -9.2810   17.0553 N   0  0  0  0  0  0  0  0  0  0  0  0
    9.4002   -4.2777   15.9890 C   0  0  0  0  0  0  0  0  0  0  0  0
   11.2565   -2.8190   18.8531 C   0  0  0  0  0  0  0  0  0  0  0  0
    1.3860   -9.2081   16.0076 C   0  0  0  0  0  0  0  0  0  0  0  0
   -0.6049  -10.8692   22.4441 C   0  0  0  0  0  0  0  0  0  0  0  0
    7.5780   -5.9951   16.0165 C   0  0  0  0  0  0  0  0  0  0  0  0
   -0.7359  -10.8450   20.0542 C   0  0  0  0  0  0  0  0  0  0  0  0
    1.0240  -11.7443   18.6054 C   0  0  0  0  0  0  0  0  0  0  0  0
    2.6597   -8.7525   16.1422 C   0  0  0  0  0  0  0  0  0  0  0  0
   10.7697   -3.6382   19.8893 C   0  0  0  0  0  0  0  0  0  0  0  0
    1.5848  -10.7455   17.7777 C   0  0  0  0  0  0  0  0  0  0  0  0
    5.6785   -7.4130   15.7047 C   0  0  0  0  0  0  0  0  0  0  0  0
  1 19  2  0
  2 24  4  0
  2 28  4  0
  3 19  1  0
  4 26  4  0
  4 33  4  0
  5 20  4  0
  5 27  4  0
  6 18  4  0
  6 21  4  0
  7 13  4  0
  7 25  4  0
  8 16  4  0
  8 17  4  0
  9 14  4  0
  9 17  4  0
 10 14  4  0
 10 32  4  0
 11 20  4  0
 11 29  4  0
 11 30  1  0
 12 18  4  0
 12 23  4  0
 12 33  4  0
 13 14  4  0
 13 24  4  0
 15 28  4  0
 15 34  4  0
 16 21  1  0
 16 34  4  0
 17 28  4  0
 19 32  1  0
 21 23  4  0
 22 27  4  0
 22 29  4  0
 23 31  4  0
 25 32  4  0
 26 31  4  0
 30 33  1  0
M  END
$$$$

 Created by Python create_sdf_string function

 34 39  0  0  0  0  0  0  0  0999 V2000
   11.7748   -2.4134   21.4869 O   0  0  0  0  0  0  0  0  0  0  0  0
    8.4571   -5.0280   15.5489 C   0  0  0  0  0  0  0  0  0  0  0  0
   10.6373   -4.1527   22.1338 O   0  0  0  0  0  0  0  0  0  0  0  0
    0.8865  -10.1736   16.8062 N   0  0  0  0  0  0  0  0  0  0  0  0
    0.6363  -11.5685   22.3514 C   0  0  0  0  0  0  0  0  0  0  0  0
    4.9382   -9.8865   18.4135 C   0  0  0  0  0  0  0  0  0  0  0  0
   10.8301   -3.1290   17.5832 C   0  0  0  0  0  0  0  0  0  0  0  0
    6.7438   -7.4973   17.7359 C   0  0  0  0  0  0  0  0  0  0  0  0
    8.5781   -5.9390   18.1797 N   0  0  0  0  0  0  0  0  0  0  0  0
    9.9427   -4.7068   19.6371 C   0  0  0  0  0  0  0  0  0  0  0  0
    0.4794  -11.4482   19.9323 C   0  0  0  0  0  0  0  0  0  0  0  0
    2.8970  -10.2853   17.8533 C   0  0  0  0  0  0  0  0  0  0  0  0
    9.9066   -4.1176   17.2835 C   0  0  0  0  0  0  0  0  0  0  0  0
    9.4685   -4.9581   18.3697 C   0  0  0  0  0  0  0  0  0  0  0  0
    6.5959   -6.5143   15.2606 C   0  0  0  0  0  0  0  0  0  0  0  0
    5.7287   -7.9676   16.9587 C   0  0  0  0  0  0  0  0  0  0  0  0
    7.6332   -6.5041   17.3535 C   0  0  0  0  0  0  0  0  0  0  0  0
    3.8550  -10.6808   18.6840 N   0  0  0  0  0  0  0  0  0  0  0  0
   11.0986   -3.3658   21.2207 C   0  0  0  0  0  0  0  0  0  0  0  0
    1.1160  -11.8135   21.0849 C   0  0  0  0  0  0  0  0  0  0  0  0
    4.7306   -8.9915   17.4326 C   0  0  0  0  0  0  0  0  0  0  0  0
   -1.3063  -10.5114   21.2530 C   0  0  0  0  0  0  0  0  0  0  0  0
    3.4124   -9.2810   17.0553 N   0  0  0  0  0  0  0  0  0  0  0  0
    9.4002   -4.2777   15.9890 C   0  0  0  0  0  0  0  0  0  0  0  0
   11.2565   -2.8190   18.8531 C   0  0  0  0  0  0  0  0  0  0  0  0
    1.3860   -9.2081   16.0076 C   0  0  0  0  0  0  0  0  0  0  0  0
   -0.6049  -10.8692   22.4441 C   0  0  0  0  0  0  0  0  0  0  0  0
    7.5780   -5.9951   16.0165 C   0  0  0  0  0  0  0  0  0  0  0  0
   -0.7359  -10.8450   20.0542 C   0  0  0  0  0  0  0  0  0  0  0  0
    1.0240  -11.7443   18.6054 C   0  0  0  0  0  0  0  0  0  0  0  0
    2.6597   -8.7525   16.1422 C   0  0  0  0  0  0  0  0  0  0  0  0
   10.7697   -3.6382   19.8893 C   0  0  0  0  0  0  0  0  0  0  0  0
    1.5848  -10.7455   17.7777 C   0  0  0  0  0  0  0  0  0  0  0  0
    5.6785   -7.4130   15.7047 C   0  0  0  0  0  0  0  0  0  0  0  0
  1 19  2  0
  2 24  4  0
  2 28  4  0
  3 19  1  0
  4 26  4  0
  4 33  4  0
  5 20  4  0
  5 27  4  0
  6 18  4  0
  6 21  4  0
  7 13  4  0
  7 25  4  0
  8 16  4  0
  8 17  4  0
  9 14  4  0
  9 17  4  0
 10 14  4  0
 10 32  4  0
 11 20  4  0
 11 29  4  0
 11 30  1  0
 12 18  4  0
 12 23  4  0
 12 33  4  0
 13 14  4  0
 13 24  4  0
 15 28  4  0
 15 34  4  0
 16 21  1  0
 16 34  4  0
 17 28  4  0
 19 32  1  0
 21 23  4  0
 22 27  4  0
 22 29  4  0
 23 31  4  0
 25 32  4  0
 26 31  4  0
 30 33  1  0
M  END
$$$$

 Created by Python create_sdf_string function

 34 39  0  0  0  0  0  0  0  0999 V2000
   11.7748   -2.4134   21.4869 O   0  0  0  0  0  0  0  0  0  0  0  0
    8.4571   -5.0280   15.5489 C   0  0  0  0  0  0  0  0  0  0  0  0
   10.6373   -4.1527   22.1338 O   0  0  0  0  0  0  0  0  0  0  0  0
    0.8865  -10.1736   16.8062 N   0  0  0  0  0  0  0  0  0  0  0  0
    0.6363  -11.5685   22.3514 C   0  0  0  0  0  0  0  0  0  0  0  0
    4.9382   -9.8865   18.4135 C   0  0  0  0  0  0  0  0  0  0  0  0
   10.8301   -3.1290   17.5832 C   0  0  0  0  0  0  0  0  0  0  0  0
    6.7438   -7.4973   17.7359 C   0  0  0  0  0  0  0  0  0  0  0  0
    8.5781   -5.9390   18.1797 N   0  0  0  0  0  0  0  0  0  0  0  0
    9.9427   -4.7068   19.6371 C   0  0  0  0  0  0  0  0  0  0  0  0
    0.4794  -11.4482   19.9323 C   0  0  0  0  0  0  0  0  0  0  0  0
    2.8970  -10.2853   17.8533 C   0  0  0  0  0  0  0  0  0  0  0  0
    9.9066   -4.1176   17.2835 C   0  0  0  0  0  0  0  0  0  0  0  0
    9.4685   -4.9581   18.3697 C   0  0  0  0  0  0  0  0  0  0  0  0
    6.5959   -6.5143   15.2606 C   0  0  0  0  0  0  0  0  0  0  0  0
    5.7287   -7.9676   16.9587 C   0  0  0  0  0  0  0  0  0  0  0  0
    7.6332   -6.5041   17.3535 C   0  0  0  0  0  0  0  0  0  0  0  0
    3.8550  -10.6808   18.6840 N   0  0  0  0  0  0  0  0  0  0  0  0
   11.0986   -3.3658   21.2207 C   0  0  0  0  0  0  0  0  0  0  0  0
    1.1160  -11.8135   21.0849 C   0  0  0  0  0  0  0  0  0  0  0  0
    4.7306   -8.9915   17.4326 C   0  0  0  0  0  0  0  0  0  0  0  0
   -1.3063  -10.5114   21.2530 C   0  0  0  0  0  0  0  0  0  0  0  0
    3.4124   -9.2810   17.0553 N   0  0  0  0  0  0  0  0  0  0  0  0
    9.4002   -4.2777   15.9890 C   0  0  0  0  0  0  0  0  0  0  0  0
   11.2565   -2.8190   18.8531 C   0  0  0  0  0  0  0  0  0  0  0  0
    1.3860   -9.2081   16.0076 C   0  0  0  0  0  0  0  0  0  0  0  0
   -0.6049  -10.8692   22.4441 C   0  0  0  0  0  0  0  0  0  0  0  0
    7.5780   -5.9951   16.0165 C   0  0  0  0  0  0  0  0  0  0  0  0
   -0.7359  -10.8450   20.0542 C   0  0  0  0  0  0  0  0  0  0  0  0
    1.0240  -11.7443   18.6054 C   0  0  0  0  0  0  0  0  0  0  0  0
    2.6597   -8.7525   16.1422 C   0  0  0  0  0  0  0  0  0  0  0  0
   10.7697   -3.6382   19.8893 C   0  0  0  0  0  0  0  0  0  0  0  0
    1.5848  -10.7455   17.7777 C   0  0  0  0  0  0  0  0  0  0  0  0
    5.6785   -7.4130   15.7047 C   0  0  0  0  0  0  0  0  0  0  0  0
  1 19  2  0
  2 24  4  0
  2 28  4  0
  3 19  1  0
  4 26  4  0
  4 33  4  0
  5 20  4  0
  5 27  4  0
  6 18  4  0
  6 21  4  0
  7 13  4  0
  7 25  4  0
  8 16  4  0
  8 17  4  0
  9 14  4  0
  9 17  4  0
 10 14  4  0
 10 32  4  0
 11 20  4  0
 11 29  4  0
 11 30  1  0
 12 18  4  0
 12 23  4  0
 12 33  4  0
 13 14  4  0
 13 24  4  0
 15 28  4  0
 15 34  4  0
 16 21  1  0
 16 34  4  0
 17 28  4  0
 19 32  1  0
 21 23  4  0
 22 27  4  0
 22 29  4  0
 23 31  4  0
 25 32  4  0
 26 31  4  0
 30 33  1  0
M  END
$$$$

 Created by Python create_sdf_string function

 34 39  0  0  0  0  0  0  0  0999 V2000
   11.7748   -2.4134   21.4869 O   0  0  0  0  0  0  0  0  0  0  0  0
    8.4571   -5.0280   15.5489 C   0  0  0  0  0  0  0  0  0  0  0  0
   10.6373   -4.1527   22.1338 O   0  0  0  0  0  0  0  0  0  0  0  0
    0.8865  -10.1736   16.8062 N   0  0  0  0  0  0  0  0  0  0  0  0
    0.6363  -11.5685   22.3514 C   0  0  0  0  0  0  0  0  0  0  0  0
    4.9382   -9.8865   18.4135 C   0  0  0  0  0  0  0  0  0  0  0  0
   10.8301   -3.1290   17.5832 C   0  0  0  0  0  0  0  0  0  0  0  0
    6.7438   -7.4973   17.7359 C   0  0  0  0  0  0  0  0  0  0  0  0
    8.5781   -5.9390   18.1797 N   0  0  0  0  0  0  0  0  0  0  0  0
    9.9427   -4.7068   19.6371 C   0  0  0  0  0  0  0  0  0  0  0  0
    0.4794  -11.4482   19.9323 C   0  0  0  0  0  0  0  0  0  0  0  0
    2.8970  -10.2853   17.8533 C   0  0  0  0  0  0  0  0  0  0  0  0
    9.9066   -4.1176   17.2835 C   0  0  0  0  0  0  0  0  0  0  0  0
    9.4685   -4.9581   18.3697 C   0  0  0  0  0  0  0  0  0  0  0  0
    6.5959   -6.5143   15.2606 C   0  0  0  0  0  0  0  0  0  0  0  0
    5.7287   -7.9676   16.9587 C   0  0  0  0  0  0  0  0  0  0  0  0
    7.6332   -6.5041   17.3535 C   0  0  0  0  0  0  0  0  0  0  0  0
    3.8550  -10.6808   18.6840 N   0  0  0  0  0  0  0  0  0  0  0  0
   11.0986   -3.3658   21.2207 C   0  0  0  0  0  0  0  0  0  0  0  0
    1.1160  -11.8135   21.0849 C   0  0  0  0  0  0  0  0  0  0  0  0
    4.7306   -8.9915   17.4326 C   0  0  0  0  0  0  0  0  0  0  0  0
   -1.3063  -10.5114   21.2530 C   0  0  0  0  0  0  0  0  0  0  0  0
    3.4124   -9.2810   17.0553 N   0  0  0  0  0  0  0  0  0  0  0  0
    9.4002   -4.2777   15.9890 C   0  0  0  0  0  0  0  0  0  0  0  0
   11.2565   -2.8190   18.8531 C   0  0  0  0  0  0  0  0  0  0  0  0
    1.3860   -9.2081   16.0076 C   0  0  0  0  0  0  0  0  0  0  0  0
   -0.6049  -10.8692   22.4441 C   0  0  0  0  0  0  0  0  0  0  0  0
    7.5780   -5.9951   16.0165 C   0  0  0  0  0  0  0  0  0  0  0  0
   -0.7359  -10.8450   20.0542 C   0  0  0  0  0  0  0  0  0  0  0  0
    1.0240  -11.7443   18.6054 C   0  0  0  0  0  0  0  0  0  0  0  0
    2.6597   -8.7525   16.1422 C   0  0  0  0  0  0  0  0  0  0  0  0
   10.7697   -3.6382   19.8893 C   0  0  0  0  0  0  0  0  0  0  0  0
    1.5848  -10.7455   17.7777 C   0  0  0  0  0  0  0  0  0  0  0  0
    5.6785   -7.4130   15.7047 C   0  0  0  0  0  0  0  0  0  0  0  0
  1 19  2  0
  2 24  4  0
  2 28  4  0
  3 19  1  0
  4 26  4  0
  4 33  4  0
  5 20  4  0
  5 27  4  0
  6 18  4  0
  6 21  4  0
  7 13  4  0
  7 25  4  0
  8 16  4  0
  8 17  4  0
  9 14  4  0
  9 17  4  0
 10 14  4  0
 10 32  4  0
 11 20  4  0
 11 29  4  0
 11 30  1  0
 12 18  4  0
 12 23  4  0
 12 33  4  0
 13 14  4  0
 13 24  4  0
 15 28  4  0
 15 34  4  0
 16 21  1  0
 16 34  4  0
 17 28  4  0
 19 32  1  0
 21 23  4  0
 22 27  4  0
 22 29  4  0
 23 31  4  0
 25 32  4  0
 26 31  4  0
 30 33  1  0
M  END
$$$$

 Created by Python create_sdf_string function

 34 39  0  0  0  0  0  0  0  0999 V2000
   11.7748   -2.4134   21.4869 O   0  0  0  0  0  0  0  0  0  0  0  0
    8.4571   -5.0280   15.5489 C   0  0  0  0  0  0  0  0  0  0  0  0
   10.6373   -4.1527   22.1338 O   0  0  0  0  0  0  0  0  0  0  0  0
    0.8865  -10.1736   16.8062 N   0  0  0  0  0  0  0  0  0  0  0  0
    0.6363  -11.5685   22.3514 C   0  0  0  0  0  0  0  0  0  0  0  0
    4.9382   -9.8865   18.4135 C   0  0  0  0  0  0  0  0  0  0  0  0
   10.8301   -3.1290   17.5832 C   0  0  0  0  0  0  0  0  0  0  0  0
    6.7438   -7.4973   17.7359 C   0  0  0  0  0  0  0  0  0  0  0  0
    8.5781   -5.9390   18.1797 N   0  0  0  0  0  0  0  0  0  0  0  0
    9.9427   -4.7068   19.6371 C   0  0  0  0  0  0  0  0  0  0  0  0
    0.4794  -11.4482   19.9323 C   0  0  0  0  0  0  0  0  0  0  0  0
    2.8970  -10.2853   17.8533 C   0  0  0  0  0  0  0  0  0  0  0  0
    9.9066   -4.1176   17.2835 C   0  0  0  0  0  0  0  0  0  0  0  0
    9.4685   -4.9581   18.3697 C   0  0  0  0  0  0  0  0  0  0  0  0
    6.5959   -6.5143   15.2606 C   0  0  0  0  0  0  0  0  0  0  0  0
    5.7287   -7.9676   16.9587 C   0  0  0  0  0  0  0  0  0  0  0  0
    7.6332   -6.5041   17.3535 C   0  0  0  0  0  0  0  0  0  0  0  0
    3.8550  -10.6808   18.6840 N   0  0  0  0  0  0  0  0  0  0  0  0
   11.0986   -3.3658   21.2207 C   0  0  0  0  0  0  0  0  0  0  0  0
    1.1160  -11.8135   21.0849 C   0  0  0  0  0  0  0  0  0  0  0  0
    4.7306   -8.9915   17.4326 C   0  0  0  0  0  0  0  0  0  0  0  0
   -1.3063  -10.5114   21.2530 C   0  0  0  0  0  0  0  0  0  0  0  0
    3.4124   -9.2810   17.0553 N   0  0  0  0  0  0  0  0  0  0  0  0
    9.4002   -4.2777   15.9890 C   0  0  0  0  0  0  0  0  0  0  0  0
   11.2565   -2.8190   18.8531 C   0  0  0  0  0  0  0  0  0  0  0  0
    1.3860   -9.2081   16.0076 C   0  0  0  0  0  0  0  0  0  0  0  0
   -0.6049  -10.8692   22.4441 C   0  0  0  0  0  0  0  0  0  0  0  0
    7.5780   -5.9951   16.0165 C   0  0  0  0  0  0  0  0  0  0  0  0
   -0.7359  -10.8450   20.0542 C   0  0  0  0  0  0  0  0  0  0  0  0
    1.0240  -11.7443   18.6054 C   0  0  0  0  0  0  0  0  0  0  0  0
    2.6597   -8.7525   16.1422 C   0  0  0  0  0  0  0  0  0  0  0  0
   10.7697   -3.6382   19.8893 C   0  0  0  0  0  0  0  0  0  0  0  0
    1.5848  -10.7455   17.7777 C   0  0  0  0  0  0  0  0  0  0  0  0
    5.6785   -7.4130   15.7047 C   0  0  0  0  0  0  0  0  0  0  0  0
  1 19  2  0
  2 24  4  0
  2 28  4  0
  3 19  1  0
  4 26  4  0
  4 33  4  0
  5 20  4  0
  5 27  4  0
  6 18  4  0
  6 21  4  0
  7 13  4  0
  7 25  4  0
  8 16  4  0
  8 17  4  0
  9 14  4  0
  9 17  4  0
 10 14  4  0
 10 32  4  0
 11 20  4  0
 11 29  4  0
 11 30  1  0
 12 18  4  0
 12 23  4  0
 12 33  4  0
 13 14  4  0
 13 24  4  0
 15 28  4  0
 15 34  4  0
 16 21  1  0
 16 34  4  0
 17 28  4  0
 19 32  1  0
 21 23  4  0
 22 27  4  0
 22 29  4  0
 23 31  4  0
 25 32  4  0
 26 31  4  0
 30 33  1  0
M  END
$$$$

 Created by Python create_sdf_string function

 34 39  0  0  0  0  0  0  0  0999 V2000
   11.7748   -2.4134   21.4869 O   0  0  0  0  0  0  0  0  0  0  0  0
    8.4571   -5.0280   15.5489 C   0  0  0  0  0  0  0  0  0  0  0  0
   10.6373   -4.1527   22.1338 O   0  0  0  0  0  0  0  0  0  0  0  0
    0.8865  -10.1736   16.8062 N   0  0  0  0  0  0  0  0  0  0  0  0
    0.6363  -11.5685   22.3514 C   0  0  0  0  0  0  0  0  0  0  0  0
    4.9382   -9.8865   18.4135 C   0  0  0  0  0  0  0  0  0  0  0  0
   10.8301   -3.1290   17.5832 C   0  0  0  0  0  0  0  0  0  0  0  0
    6.7438   -7.4973   17.7359 C   0  0  0  0  0  0  0  0  0  0  0  0
    8.5781   -5.9390   18.1797 N   0  0  0  0  0  0  0  0  0  0  0  0
    9.9427   -4.7068   19.6371 C   0  0  0  0  0  0  0  0  0  0  0  0
    0.4794  -11.4482   19.9323 C   0  0  0  0  0  0  0  0  0  0  0  0
    2.8970  -10.2853   17.8533 C   0  0  0  0  0  0  0  0  0  0  0  0
    9.9066   -4.1176   17.2835 C   0  0  0  0  0  0  0  0  0  0  0  0
    9.4685   -4.9581   18.3697 C   0  0  0  0  0  0  0  0  0  0  0  0
    6.5959   -6.5143   15.2606 C   0  0  0  0  0  0  0  0  0  0  0  0
    5.7287   -7.9676   16.9587 C   0  0  0  0  0  0  0  0  0  0  0  0
    7.6332   -6.5041   17.3535 C   0  0  0  0  0  0  0  0  0  0  0  0
    3.8550  -10.6808   18.6840 N   0  0  0  0  0  0  0  0  0  0  0  0
   11.0986   -3.3658   21.2207 C   0  0  0  0  0  0  0  0  0  0  0  0
    1.1160  -11.8135   21.0849 C   0  0  0  0  0  0  0  0  0  0  0  0
    4.7306   -8.9915   17.4326 C   0  0  0  0  0  0  0  0  0  0  0  0
   -1.3063  -10.5114   21.2530 C   0  0  0  0  0  0  0  0  0  0  0  0
    3.4124   -9.2810   17.0553 N   0  0  0  0  0  0  0  0  0  0  0  0
    9.4002   -4.2777   15.9890 C   0  0  0  0  0  0  0  0  0  0  0  0
   11.2565   -2.8190   18.8531 C   0  0  0  0  0  0  0  0  0  0  0  0
    1.3860   -9.2081   16.0076 C   0  0  0  0  0  0  0  0  0  0  0  0
   -0.6049  -10.8692   22.4441 C   0  0  0  0  0  0  0  0  0  0  0  0
    7.5780   -5.9951   16.0165 C   0  0  0  0  0  0  0  0  0  0  0  0
   -0.7359  -10.8450   20.0542 C   0  0  0  0  0  0  0  0  0  0  0  0
    1.0240  -11.7443   18.6054 C   0  0  0  0  0  0  0  0  0  0  0  0
    2.6597   -8.7525   16.1422 C   0  0  0  0  0  0  0  0  0  0  0  0
   10.7697   -3.6382   19.8893 C   0  0  0  0  0  0  0  0  0  0  0  0
    1.5848  -10.7455   17.7777 C   0  0  0  0  0  0  0  0  0  0  0  0
    5.6785   -7.4130   15.7047 C   0  0  0  0  0  0  0  0  0  0  0  0
  1 19  2  0
  2 24  4  0
  2 28  4  0
  3 19  1  0
  4 26  4  0
  4 33  4  0
  5 20  4  0
  5 27  4  0
  6 18  4  0
  6 21  4  0
  7 13  4  0
  7 25  4  0
  8 16  4  0
  8 17  4  0
  9 14  4  0
  9 17  4  0
 10 14  4  0
 10 32  4  0
 11 20  4  0
 11 29  4  0
 11 30  1  0
 12 18  4  0
 12 23  4  0
 12 33  4  0
 13 14  4  0
 13 24  4  0
 15 28  4  0
 15 34  4  0
 16 21  1  0
 16 34  4  0
 17 28  4  0
 19 32  1  0
 21 23  4  0
 22 27  4  0
 22 29  4  0
 23 31  4  0
 25 32  4  0
 26 31  4  0
 30 33  1  0
M  END
$$$$

 Created by Python create_sdf_string function

 34 39  0  0  0  0  0  0  0  0999 V2000
   11.7748   -2.4134   21.4869 O   0  0  0  0  0  0  0  0  0  0  0  0
    8.4571   -5.0280   15.5489 C   0  0  0  0  0  0  0  0  0  0  0  0
   10.6373   -4.1527   22.1338 O   0  0  0  0  0  0  0  0  0  0  0  0
    0.8865  -10.1736   16.8062 N   0  0  0  0  0  0  0  0  0  0  0  0
    0.6363  -11.5685   22.3514 C   0  0  0  0  0  0  0  0  0  0  0  0
    4.9382   -9.8865   18.4135 C   0  0  0  0  0  0  0  0  0  0  0  0
   10.8301   -3.1290   17.5832 C   0  0  0  0  0  0  0  0  0  0  0  0
    6.7438   -7.4973   17.7359 C   0  0  0  0  0  0  0  0  0  0  0  0
    8.5781   -5.9390   18.1797 N   0  0  0  0  0  0  0  0  0  0  0  0
    9.9427   -4.7068   19.6371 C   0  0  0  0  0  0  0  0  0  0  0  0
    0.4794  -11.4482   19.9323 C   0  0  0  0  0  0  0  0  0  0  0  0
    2.8970  -10.2853   17.8533 C   0  0  0  0  0  0  0  0  0  0  0  0
    9.9066   -4.1176   17.2835 C   0  0  0  0  0  0  0  0  0  0  0  0
    9.4685   -4.9581   18.3697 C   0  0  0  0  0  0  0  0  0  0  0  0
    6.5959   -6.5143   15.2606 C   0  0  0  0  0  0  0  0  0  0  0  0
    5.7287   -7.9676   16.9587 C   0  0  0  0  0  0  0  0  0  0  0  0
    7.6332   -6.5041   17.3535 C   0  0  0  0  0  0  0  0  0  0  0  0
    3.8550  -10.6808   18.6840 N   0  0  0  0  0  0  0  0  0  0  0  0
   11.0986   -3.3658   21.2207 C   0  0  0  0  0  0  0  0  0  0  0  0
    1.1160  -11.8135   21.0849 C   0  0  0  0  0  0  0  0  0  0  0  0
    4.7306   -8.9915   17.4326 C   0  0  0  0  0  0  0  0  0  0  0  0
   -1.3063  -10.5114   21.2530 C   0  0  0  0  0  0  0  0  0  0  0  0
    3.4124   -9.2810   17.0553 N   0  0  0  0  0  0  0  0  0  0  0  0
    9.4002   -4.2777   15.9890 C   0  0  0  0  0  0  0  0  0  0  0  0
   11.2565   -2.8190   18.8531 C   0  0  0  0  0  0  0  0  0  0  0  0
    1.3860   -9.2081   16.0076 C   0  0  0  0  0  0  0  0  0  0  0  0
   -0.6049  -10.8692   22.4441 C   0  0  0  0  0  0  0  0  0  0  0  0
    7.5780   -5.9951   16.0165 C   0  0  0  0  0  0  0  0  0  0  0  0
   -0.7359  -10.8450   20.0542 C   0  0  0  0  0  0  0  0  0  0  0  0
    1.0240  -11.7443   18.6054 C   0  0  0  0  0  0  0  0  0  0  0  0
    2.6597   -8.7525   16.1422 C   0  0  0  0  0  0  0  0  0  0  0  0
   10.7697   -3.6382   19.8893 C   0  0  0  0  0  0  0  0  0  0  0  0
    1.5848  -10.7455   17.7777 C   0  0  0  0  0  0  0  0  0  0  0  0
    5.6785   -7.4130   15.7047 C   0  0  0  0  0  0  0  0  0  0  0  0
  1 19  2  0
  2 24  4  0
  2 28  4  0
  3 19  1  0
  4 26  4  0
  4 33  4  0
  5 20  4  0
  5 27  4  0
  6 18  4  0
  6 21  4  0
  7 13  4  0
  7 25  4  0
  8 16  4  0
  8 17  4  0
  9 14  4  0
  9 17  4  0
 10 14  4  0
 10 32  4  0
 11 20  4  0
 11 29  4  0
 11 30  1  0
 12 18  4  0
 12 23  4  0
 12 33  4  0
 13 14  4  0
 13 24  4  0
 15 28  4  0
 15 34  4  0
 16 21  1  0
 16 34  4  0
 17 28  4  0
 19 32  1  0
 21 23  4  0
 22 27  4  0
 22 29  4  0
 23 31  4  0
 25 32  4  0
 26 31  4  0
 30 33  1  0
M  END
$$$$

 Created by Python create_sdf_string function

 34 39  0  0  0  0  0  0  0  0999 V2000
   11.7748   -2.4134   21.4869 O   0  0  0  0  0  0  0  0  0  0  0  0
    8.4571   -5.0280   15.5489 C   0  0  0  0  0  0  0  0  0  0  0  0
   10.6373   -4.1527   22.1338 O   0  0  0  0  0  0  0  0  0  0  0  0
    0.8865  -10.1736   16.8062 N   0  0  0  0  0  0  0  0  0  0  0  0
    0.6363  -11.5685   22.3514 C   0  0  0  0  0  0  0  0  0  0  0  0
    4.9382   -9.8865   18.4135 C   0  0  0  0  0  0  0  0  0  0  0  0
   10.8301   -3.1290   17.5832 C   0  0  0  0  0  0  0  0  0  0  0  0
    6.7438   -7.4973   17.7359 C   0  0  0  0  0  0  0  0  0  0  0  0
    8.5781   -5.9390   18.1797 N   0  0  0  0  0  0  0  0  0  0  0  0
    9.9427   -4.7068   19.6371 C   0  0  0  0  0  0  0  0  0  0  0  0
    0.4794  -11.4482   19.9323 C   0  0  0  0  0  0  0  0  0  0  0  0
    2.8970  -10.2853   17.8533 C   0  0  0  0  0  0  0  0  0  0  0  0
    9.9066   -4.1176   17.2835 C   0  0  0  0  0  0  0  0  0  0  0  0
    9.4685   -4.9581   18.3697 C   0  0  0  0  0  0  0  0  0  0  0  0
    6.5959   -6.5143   15.2606 C   0  0  0  0  0  0  0  0  0  0  0  0
    5.7287   -7.9676   16.9587 C   0  0  0  0  0  0  0  0  0  0  0  0
    7.6332   -6.5041   17.3535 C   0  0  0  0  0  0  0  0  0  0  0  0
    3.8550  -10.6808   18.6840 N   0  0  0  0  0  0  0  0  0  0  0  0
   11.0986   -3.3658   21.2207 C   0  0  0  0  0  0  0  0  0  0  0  0
    1.1160  -11.8135   21.0849 C   0  0  0  0  0  0  0  0  0  0  0  0
    4.7306   -8.9915   17.4326 C   0  0  0  0  0  0  0  0  0  0  0  0
   -1.3063  -10.5114   21.2530 C   0  0  0  0  0  0  0  0  0  0  0  0
    3.4124   -9.2810   17.0553 N   0  0  0  0  0  0  0  0  0  0  0  0
    9.4002   -4.2777   15.9890 C   0  0  0  0  0  0  0  0  0  0  0  0
   11.2565   -2.8190   18.8531 C   0  0  0  0  0  0  0  0  0  0  0  0
    1.3860   -9.2081   16.0076 C   0  0  0  0  0  0  0  0  0  0  0  0
   -0.6049  -10.8692   22.4441 C   0  0  0  0  0  0  0  0  0  0  0  0
    7.5780   -5.9951   16.0165 C   0  0  0  0  0  0  0  0  0  0  0  0
   -0.7359  -10.8450   20.0542 C   0  0  0  0  0  0  0  0  0  0  0  0
    1.0240  -11.7443   18.6054 C   0  0  0  0  0  0  0  0  0  0  0  0
    2.6597   -8.7525   16.1422 C   0  0  0  0  0  0  0  0  0  0  0  0
   10.7697   -3.6382   19.8893 C   0  0  0  0  0  0  0  0  0  0  0  0
    1.5848  -10.7455   17.7777 C   0  0  0  0  0  0  0  0  0  0  0  0
    5.6785   -7.4130   15.7047 C   0  0  0  0  0  0  0  0  0  0  0  0
  1 19  2  0
  2 24  4  0
  2 28  4  0
  3 19  1  0
  4 26  4  0
  4 33  4  0
  5 20  4  0
  5 27  4  0
  6 18  4  0
  6 21  4  0
  7 13  4  0
  7 25  4  0
  8 16  4  0
  8 17  4  0
  9 14  4  0
  9 17  4  0
 10 14  4  0
 10 32  4  0
 11 20  4  0
 11 29  4  0
 11 30  1  0
 12 18  4  0
 12 23  4  0
 12 33  4  0
 13 14  4  0
 13 24  4  0
 15 28  4  0
 15 34  4  0
 16 21  1  0
 16 34  4  0
 17 28  4  0
 19 32  1  0
 21 23  4  0
 22 27  4  0
 22 29  4  0
 23 31  4  0
 25 32  4  0
 26 31  4  0
 30 33  1  0
M  END
$$$$

 Created by Python create_sdf_string function

 34 39  0  0  0  0  0  0  0  0999 V2000
   11.7748   -2.4134   21.4869 O   0  0  0  0  0  0  0  0  0  0  0  0
    8.4571   -5.0280   15.5489 C   0  0  0  0  0  0  0  0  0  0  0  0
   10.6373   -4.1527   22.1338 O   0  0  0  0  0  0  0  0  0  0  0  0
    0.8865  -10.1736   16.8062 N   0  0  0  0  0  0  0  0  0  0  0  0
    0.6363  -11.5685   22.3514 C   0  0  0  0  0  0  0  0  0  0  0  0
    4.9382   -9.8865   18.4135 C   0  0  0  0  0  0  0  0  0  0  0  0
   10.8301   -3.1290   17.5832 C   0  0  0  0  0  0  0  0  0  0  0  0
    6.7438   -7.4973   17.7359 C   0  0  0  0  0  0  0  0  0  0  0  0
    8.5781   -5.9390   18.1797 N   0  0  0  0  0  0  0  0  0  0  0  0
    9.9427   -4.7068   19.6371 C   0  0  0  0  0  0  0  0  0  0  0  0
    0.4794  -11.4482   19.9323 C   0  0  0  0  0  0  0  0  0  0  0  0
    2.8970  -10.2853   17.8533 C   0  0  0  0  0  0  0  0  0  0  0  0
    9.9066   -4.1176   17.2835 C   0  0  0  0  0  0  0  0  0  0  0  0
    9.4685   -4.9581   18.3697 C   0  0  0  0  0  0  0  0  0  0  0  0
    6.5959   -6.5143   15.2606 C   0  0  0  0  0  0  0  0  0  0  0  0
    5.7287   -7.9676   16.9587 C   0  0  0  0  0  0  0  0  0  0  0  0
    7.6332   -6.5041   17.3535 C   0  0  0  0  0  0  0  0  0  0  0  0
    3.8550  -10.6808   18.6840 N   0  0  0  0  0  0  0  0  0  0  0  0
   11.0986   -3.3658   21.2207 C   0  0  0  0  0  0  0  0  0  0  0  0
    1.1160  -11.8135   21.0849 C   0  0  0  0  0  0  0  0  0  0  0  0
    4.7306   -8.9915   17.4326 C   0  0  0  0  0  0  0  0  0  0  0  0
   -1.3063  -10.5114   21.2530 C   0  0  0  0  0  0  0  0  0  0  0  0
    3.4124   -9.2810   17.0553 N   0  0  0  0  0  0  0  0  0  0  0  0
    9.4002   -4.2777   15.9890 C   0  0  0  0  0  0  0  0  0  0  0  0
   11.2565   -2.8190   18.8531 C   0  0  0  0  0  0  0  0  0  0  0  0
    1.3860   -9.2081   16.0076 C   0  0  0  0  0  0  0  0  0  0  0  0
   -0.6049  -10.8692   22.4441 C   0  0  0  0  0  0  0  0  0  0  0  0
    7.5780   -5.9951   16.0165 C   0  0  0  0  0  0  0  0  0  0  0  0
   -0.7359  -10.8450   20.0542 C   0  0  0  0  0  0  0  0  0  0  0  0
    1.0240  -11.7443   18.6054 C   0  0  0  0  0  0  0  0  0  0  0  0
    2.6597   -8.7525   16.1422 C   0  0  0  0  0  0  0  0  0  0  0  0
   10.7697   -3.6382   19.8893 C   0  0  0  0  0  0  0  0  0  0  0  0
    1.5848  -10.7455   17.7777 C   0  0  0  0  0  0  0  0  0  0  0  0
    5.6785   -7.4130   15.7047 C   0  0  0  0  0  0  0  0  0  0  0  0
  1 19  2  0
  2 24  4  0
  2 28  4  0
  3 19  1  0
  4 26  4  0
  4 33  4  0
  5 20  4  0
  5 27  4  0
  6 18  4  0
  6 21  4  0
  7 13  4  0
  7 25  4  0
  8 16  4  0
  8 17  4  0
  9 14  4  0
  9 17  4  0
 10 14  4  0
 10 32  4  0
 11 20  4  0
 11 29  4  0
 11 30  1  0
 12 18  4  0
 12 23  4  0
 12 33  4  0
 13 14  4  0
 13 24  4  0
 15 28  4  0
 15 34  4  0
 16 21  1  0
 16 34  4  0
 17 28  4  0
 19 32  1  0
 21 23  4  0
 22 27  4  0
 22 29  4  0
 23 31  4  0
 25 32  4  0
 26 31  4  0
 30 33  1  0
M  END
$$$$

 Created by Python create_sdf_string function

 34 39  0  0  0  0  0  0  0  0999 V2000
   11.7748   -2.4134   21.4869 O   0  0  0  0  0  0  0  0  0  0  0  0
    8.4571   -5.0280   15.5489 C   0  0  0  0  0  0  0  0  0  0  0  0
   10.6373   -4.1527   22.1338 O   0  0  0  0  0  0  0  0  0  0  0  0
    0.8865  -10.1736   16.8062 N   0  0  0  0  0  0  0  0  0  0  0  0
    0.6363  -11.5685   22.3514 C   0  0  0  0  0  0  0  0  0  0  0  0
    4.9382   -9.8865   18.4135 C   0  0  0  0  0  0  0  0  0  0  0  0
   10.8301   -3.1290   17.5832 C   0  0  0  0  0  0  0  0  0  0  0  0
    6.7438   -7.4973   17.7359 C   0  0  0  0  0  0  0  0  0  0  0  0
    8.5781   -5.9390   18.1797 N   0  0  0  0  0  0  0  0  0  0  0  0
    9.9427   -4.7068   19.6371 C   0  0  0  0  0  0  0  0  0  0  0  0
    0.4794  -11.4482   19.9323 C   0  0  0  0  0  0  0  0  0  0  0  0
    2.8970  -10.2853   17.8533 C   0  0  0  0  0  0  0  0  0  0  0  0
    9.9066   -4.1176   17.2835 C   0  0  0  0  0  0  0  0  0  0  0  0
    9.4685   -4.9581   18.3697 C   0  0  0  0  0  0  0  0  0  0  0  0
    6.5959   -6.5143   15.2606 C   0  0  0  0  0  0  0  0  0  0  0  0
    5.7287   -7.9676   16.9587 C   0  0  0  0  0  0  0  0  0  0  0  0
    7.6332   -6.5041   17.3535 C   0  0  0  0  0  0  0  0  0  0  0  0
    3.8550  -10.6808   18.6840 N   0  0  0  0  0  0  0  0  0  0  0  0
   11.0986   -3.3658   21.2207 C   0  0  0  0  0  0  0  0  0  0  0  0
    1.1160  -11.8135   21.0849 C   0  0  0  0  0  0  0  0  0  0  0  0
    4.7306   -8.9915   17.4326 C   0  0  0  0  0  0  0  0  0  0  0  0
   -1.3063  -10.5114   21.2530 C   0  0  0  0  0  0  0  0  0  0  0  0
    3.4124   -9.2810   17.0553 N   0  0  0  0  0  0  0  0  0  0  0  0
    9.4002   -4.2777   15.9890 C   0  0  0  0  0  0  0  0  0  0  0  0
   11.2565   -2.8190   18.8531 C   0  0  0  0  0  0  0  0  0  0  0  0
    1.3860   -9.2081   16.0076 C   0  0  0  0  0  0  0  0  0  0  0  0
   -0.6049  -10.8692   22.4441 C   0  0  0  0  0  0  0  0  0  0  0  0
    7.5780   -5.9951   16.0165 C   0  0  0  0  0  0  0  0  0  0  0  0
   -0.7359  -10.8450   20.0542 C   0  0  0  0  0  0  0  0  0  0  0  0
    1.0240  -11.7443   18.6054 C   0  0  0  0  0  0  0  0  0  0  0  0
    2.6597   -8.7525   16.1422 C   0  0  0  0  0  0  0  0  0  0  0  0
   10.7697   -3.6382   19.8893 C   0  0  0  0  0  0  0  0  0  0  0  0
    1.5848  -10.7455   17.7777 C   0  0  0  0  0  0  0  0  0  0  0  0
    5.6785   -7.4130   15.7047 C   0  0  0  0  0  0  0  0  0  0  0  0
  1 19  2  0
  2 24  4  0
  2 28  4  0
  3 19  1  0
  4 26  4  0
  4 33  4  0
  5 20  4  0
  5 27  4  0
  6 18  4  0
  6 21  4  0
  7 13  4  0
  7 25  4  0
  8 16  4  0
  8 17  4  0
  9 14  4  0
  9 17  4  0
 10 14  4  0
 10 32  4  0
 11 20  4  0
 11 29  4  0
 11 30  1  0
 12 18  4  0
 12 23  4  0
 12 33  4  0
 13 14  4  0
 13 24  4  0
 15 28  4  0
 15 34  4  0
 16 21  1  0
 16 34  4  0
 17 28  4  0
 19 32  1  0
 21 23  4  0
 22 27  4  0
 22 29  4  0
 23 31  4  0
 25 32  4  0
 26 31  4  0
 30 33  1  0
M  END
$$$$

 Created by Python create_sdf_string function

 34 39  0  0  0  0  0  0  0  0999 V2000
   11.7748   -2.4134   21.4869 O   0  0  0  0  0  0  0  0  0  0  0  0
    8.4571   -5.0280   15.5489 C   0  0  0  0  0  0  0  0  0  0  0  0
   10.6373   -4.1527   22.1338 O   0  0  0  0  0  0  0  0  0  0  0  0
    0.8865  -10.1736   16.8062 N   0  0  0  0  0  0  0  0  0  0  0  0
    0.6363  -11.5685   22.3514 C   0  0  0  0  0  0  0  0  0  0  0  0
    4.9382   -9.8865   18.4135 C   0  0  0  0  0  0  0  0  0  0  0  0
   10.8301   -3.1290   17.5832 C   0  0  0  0  0  0  0  0  0  0  0  0
    6.7438   -7.4973   17.7359 C   0  0  0  0  0  0  0  0  0  0  0  0
    8.5781   -5.9390   18.1797 N   0  0  0  0  0  0  0  0  0  0  0  0
    9.9427   -4.7068   19.6371 C   0  0  0  0  0  0  0  0  0  0  0  0
    0.4794  -11.4482   19.9323 C   0  0  0  0  0  0  0  0  0  0  0  0
    2.8970  -10.2853   17.8533 C   0  0  0  0  0  0  0  0  0  0  0  0
    9.9066   -4.1176   17.2835 C   0  0  0  0  0  0  0  0  0  0  0  0
    9.4685   -4.9581   18.3697 C   0  0  0  0  0  0  0  0  0  0  0  0
    6.5959   -6.5143   15.2606 C   0  0  0  0  0  0  0  0  0  0  0  0
    5.7287   -7.9676   16.9587 C   0  0  0  0  0  0  0  0  0  0  0  0
    7.6332   -6.5041   17.3535 C   0  0  0  0  0  0  0  0  0  0  0  0
    3.8550  -10.6808   18.6840 N   0  0  0  0  0  0  0  0  0  0  0  0
   11.0986   -3.3658   21.2207 C   0  0  0  0  0  0  0  0  0  0  0  0
    1.1160  -11.8135   21.0849 C   0  0  0  0  0  0  0  0  0  0  0  0
    4.7306   -8.9915   17.4326 C   0  0  0  0  0  0  0  0  0  0  0  0
   -1.3063  -10.5114   21.2530 C   0  0  0  0  0  0  0  0  0  0  0  0
    3.4124   -9.2810   17.0553 N   0  0  0  0  0  0  0  0  0  0  0  0
    9.4002   -4.2777   15.9890 C   0  0  0  0  0  0  0  0  0  0  0  0
   11.2565   -2.8190   18.8531 C   0  0  0  0  0  0  0  0  0  0  0  0
    1.3860   -9.2081   16.0076 C   0  0  0  0  0  0  0  0  0  0  0  0
   -0.6049  -10.8692   22.4441 C   0  0  0  0  0  0  0  0  0  0  0  0
    7.5780   -5.9951   16.0165 C   0  0  0  0  0  0  0  0  0  0  0  0
   -0.7359  -10.8450   20.0542 C   0  0  0  0  0  0  0  0  0  0  0  0
    1.0240  -11.7443   18.6054 C   0  0  0  0  0  0  0  0  0  0  0  0
    2.6597   -8.7525   16.1422 C   0  0  0  0  0  0  0  0  0  0  0  0
   10.7697   -3.6382   19.8893 C   0  0  0  0  0  0  0  0  0  0  0  0
    1.5848  -10.7455   17.7777 C   0  0  0  0  0  0  0  0  0  0  0  0
    5.6785   -7.4130   15.7047 C   0  0  0  0  0  0  0  0  0  0  0  0
  1 19  2  0
  2 24  4  0
  2 28  4  0
  3 19  1  0
  4 26  4  0
  4 33  4  0
  5 20  4  0
  5 27  4  0
  6 18  4  0
  6 21  4  0
  7 13  4  0
  7 25  4  0
  8 16  4  0
  8 17  4  0
  9 14  4  0
  9 17  4  0
 10 14  4  0
 10 32  4  0
 11 20  4  0
 11 29  4  0
 11 30  1  0
 12 18  4  0
 12 23  4  0
 12 33  4  0
 13 14  4  0
 13 24  4  0
 15 28  4  0
 15 34  4  0
 16 21  1  0
 16 34  4  0
 17 28  4  0
 19 32  1  0
 21 23  4  0
 22 27  4  0
 22 29  4  0
 23 31  4  0
 25 32  4  0
 26 31  4  0
 30 33  1  0
M  END
$$$$

 Created by Python create_sdf_string function

 34 39  0  0  0  0  0  0  0  0999 V2000
   11.7748   -2.4134   21.4869 O   0  0  0  0  0  0  0  0  0  0  0  0
    8.4571   -5.0280   15.5489 C   0  0  0  0  0  0  0  0  0  0  0  0
   10.6373   -4.1527   22.1338 O   0  0  0  0  0  0  0  0  0  0  0  0
    0.8865  -10.1736   16.8062 N   0  0  0  0  0  0  0  0  0  0  0  0
    0.6363  -11.5685   22.3514 C   0  0  0  0  0  0  0  0  0  0  0  0
    4.9382   -9.8865   18.4135 C   0  0  0  0  0  0  0  0  0  0  0  0
   10.8301   -3.1290   17.5832 C   0  0  0  0  0  0  0  0  0  0  0  0
    6.7438   -7.4973   17.7359 C   0  0  0  0  0  0  0  0  0  0  0  0
    8.5781   -5.9390   18.1797 N   0  0  0  0  0  0  0  0  0  0  0  0
    9.9427   -4.7068   19.6371 C   0  0  0  0  0  0  0  0  0  0  0  0
    0.4794  -11.4482   19.9323 C   0  0  0  0  0  0  0  0  0  0  0  0
    2.8970  -10.2853   17.8533 C   0  0  0  0  0  0  0  0  0  0  0  0
    9.9066   -4.1176   17.2835 C   0  0  0  0  0  0  0  0  0  0  0  0
    9.4685   -4.9581   18.3697 C   0  0  0  0  0  0  0  0  0  0  0  0
    6.5959   -6.5143   15.2606 C   0  0  0  0  0  0  0  0  0  0  0  0
    5.7287   -7.9676   16.9587 C   0  0  0  0  0  0  0  0  0  0  0  0
    7.6332   -6.5041   17.3535 C   0  0  0  0  0  0  0  0  0  0  0  0
    3.8550  -10.6808   18.6840 N   0  0  0  0  0  0  0  0  0  0  0  0
   11.0986   -3.3658   21.2207 C   0  0  0  0  0  0  0  0  0  0  0  0
    1.1160  -11.8135   21.0849 C   0  0  0  0  0  0  0  0  0  0  0  0
    4.7306   -8.9915   17.4326 C   0  0  0  0  0  0  0  0  0  0  0  0
   -1.3063  -10.5114   21.2530 C   0  0  0  0  0  0  0  0  0  0  0  0
    3.4124   -9.2810   17.0553 N   0  0  0  0  0  0  0  0  0  0  0  0
    9.4002   -4.2777   15.9890 C   0  0  0  0  0  0  0  0  0  0  0  0
   11.2565   -2.8190   18.8531 C   0  0  0  0  0  0  0  0  0  0  0  0
    1.3860   -9.2081   16.0076 C   0  0  0  0  0  0  0  0  0  0  0  0
   -0.6049  -10.8692   22.4441 C   0  0  0  0  0  0  0  0  0  0  0  0
    7.5780   -5.9951   16.0165 C   0  0  0  0  0  0  0  0  0  0  0  0
   -0.7359  -10.8450   20.0542 C   0  0  0  0  0  0  0  0  0  0  0  0
    1.0240  -11.7443   18.6054 C   0  0  0  0  0  0  0  0  0  0  0  0
    2.6597   -8.7525   16.1422 C   0  0  0  0  0  0  0  0  0  0  0  0
   10.7697   -3.6382   19.8893 C   0  0  0  0  0  0  0  0  0  0  0  0
    1.5848  -10.7455   17.7777 C   0  0  0  0  0  0  0  0  0  0  0  0
    5.6785   -7.4130   15.7047 C   0  0  0  0  0  0  0  0  0  0  0  0
  1 19  2  0
  2 24  4  0
  2 28  4  0
  3 19  1  0
  4 26  4  0
  4 33  4  0
  5 20  4  0
  5 27  4  0
  6 18  4  0
  6 21  4  0
  7 13  4  0
  7 25  4  0
  8 16  4  0
  8 17  4  0
  9 14  4  0
  9 17  4  0
 10 14  4  0
 10 32  4  0
 11 20  4  0
 11 29  4  0
 11 30  1  0
 12 18  4  0
 12 23  4  0
 12 33  4  0
 13 14  4  0
 13 24  4  0
 15 28  4  0
 15 34  4  0
 16 21  1  0
 16 34  4  0
 17 28  4  0
 19 32  1  0
 21 23  4  0
 22 27  4  0
 22 29  4  0
 23 31  4  0
 25 32  4  0
 26 31  4  0
 30 33  1  0
M  END
$$$$

 Created by Python create_sdf_string function

 34 39  0  0  0  0  0  0  0  0999 V2000
   11.7748   -2.4134   21.4869 O   0  0  0  0  0  0  0  0  0  0  0  0
    8.4571   -5.0280   15.5489 C   0  0  0  0  0  0  0  0  0  0  0  0
   10.6373   -4.1527   22.1338 O   0  0  0  0  0  0  0  0  0  0  0  0
    0.8865  -10.1736   16.8062 N   0  0  0  0  0  0  0  0  0  0  0  0
    0.6363  -11.5685   22.3514 C   0  0  0  0  0  0  0  0  0  0  0  0
    4.9382   -9.8865   18.4135 C   0  0  0  0  0  0  0  0  0  0  0  0
   10.8301   -3.1290   17.5832 C   0  0  0  0  0  0  0  0  0  0  0  0
    6.7438   -7.4973   17.7359 C   0  0  0  0  0  0  0  0  0  0  0  0
    8.5781   -5.9390   18.1797 N   0  0  0  0  0  0  0  0  0  0  0  0
    9.9427   -4.7068   19.6371 C   0  0  0  0  0  0  0  0  0  0  0  0
    0.4794  -11.4482   19.9323 C   0  0  0  0  0  0  0  0  0  0  0  0
    2.8970  -10.2853   17.8533 C   0  0  0  0  0  0  0  0  0  0  0  0
    9.9066   -4.1176   17.2835 C   0  0  0  0  0  0  0  0  0  0  0  0
    9.4685   -4.9581   18.3697 C   0  0  0  0  0  0  0  0  0  0  0  0
    6.5959   -6.5143   15.2606 C   0  0  0  0  0  0  0  0  0  0  0  0
    5.7287   -7.9676   16.9587 C   0  0  0  0  0  0  0  0  0  0  0  0
    7.6332   -6.5041   17.3535 C   0  0  0  0  0  0  0  0  0  0  0  0
    3.8550  -10.6808   18.6840 N   0  0  0  0  0  0  0  0  0  0  0  0
   11.0986   -3.3658   21.2207 C   0  0  0  0  0  0  0  0  0  0  0  0
    1.1160  -11.8135   21.0849 C   0  0  0  0  0  0  0  0  0  0  0  0
    4.7306   -8.9915   17.4326 C   0  0  0  0  0  0  0  0  0  0  0  0
   -1.3063  -10.5114   21.2530 C   0  0  0  0  0  0  0  0  0  0  0  0
    3.4124   -9.2810   17.0553 N   0  0  0  0  0  0  0  0  0  0  0  0
    9.4002   -4.2777   15.9890 C   0  0  0  0  0  0  0  0  0  0  0  0
   11.2565   -2.8190   18.8531 C   0  0  0  0  0  0  0  0  0  0  0  0
    1.3860   -9.2081   16.0076 C   0  0  0  0  0  0  0  0  0  0  0  0
   -0.6049  -10.8692   22.4441 C   0  0  0  0  0  0  0  0  0  0  0  0
    7.5780   -5.9951   16.0165 C   0  0  0  0  0  0  0  0  0  0  0  0
   -0.7359  -10.8450   20.0542 C   0  0  0  0  0  0  0  0  0  0  0  0
    1.0240  -11.7443   18.6054 C   0  0  0  0  0  0  0  0  0  0  0  0
    2.6597   -8.7525   16.1422 C   0  0  0  0  0  0  0  0  0  0  0  0
   10.7697   -3.6382   19.8893 C   0  0  0  0  0  0  0  0  0  0  0  0
    1.5848  -10.7455   17.7777 C   0  0  0  0  0  0  0  0  0  0  0  0
    5.6785   -7.4130   15.7047 C   0  0  0  0  0  0  0  0  0  0  0  0
  1 19  2  0
  2 24  4  0
  2 28  4  0
  3 19  1  0
  4 26  4  0
  4 33  4  0
  5 20  4  0
  5 27  4  0
  6 18  4  0
  6 21  4  0
  7 13  4  0
  7 25  4  0
  8 16  4  0
  8 17  4  0
  9 14  4  0
  9 17  4  0
 10 14  4  0
 10 32  4  0
 11 20  4  0
 11 29  4  0
 11 30  1  0
 12 18  4  0
 12 23  4  0
 12 33  4  0
 13 14  4  0
 13 24  4  0
 15 28  4  0
 15 34  4  0
 16 21  1  0
 16 34  4  0
 17 28  4  0
 19 32  1  0
 21 23  4  0
 22 27  4  0
 22 29  4  0
 23 31  4  0
 25 32  4  0
 26 31  4  0
 30 33  1  0
M  END
$$$$

 Created by Python create_sdf_string function

 34 39  0  0  0  0  0  0  0  0999 V2000
   11.7748   -2.4134   21.4869 O   0  0  0  0  0  0  0  0  0  0  0  0
    8.4571   -5.0280   15.5489 C   0  0  0  0  0  0  0  0  0  0  0  0
   10.6373   -4.1527   22.1338 O   0  0  0  0  0  0  0  0  0  0  0  0
    0.8865  -10.1736   16.8062 N   0  0  0  0  0  0  0  0  0  0  0  0
    0.6363  -11.5685   22.3514 C   0  0  0  0  0  0  0  0  0  0  0  0
    4.9382   -9.8865   18.4135 C   0  0  0  0  0  0  0  0  0  0  0  0
   10.8301   -3.1290   17.5832 C   0  0  0  0  0  0  0  0  0  0  0  0
    6.7438   -7.4973   17.7359 C   0  0  0  0  0  0  0  0  0  0  0  0
    8.5781   -5.9390   18.1797 N   0  0  0  0  0  0  0  0  0  0  0  0
    9.9427   -4.7068   19.6371 C   0  0  0  0  0  0  0  0  0  0  0  0
    0.4794  -11.4482   19.9323 C   0  0  0  0  0  0  0  0  0  0  0  0
    2.8970  -10.2853   17.8533 C   0  0  0  0  0  0  0  0  0  0  0  0
    9.9066   -4.1176   17.2835 C   0  0  0  0  0  0  0  0  0  0  0  0
    9.4685   -4.9581   18.3697 C   0  0  0  0  0  0  0  0  0  0  0  0
    6.5959   -6.5143   15.2606 C   0  0  0  0  0  0  0  0  0  0  0  0
    5.7287   -7.9676   16.9587 C   0  0  0  0  0  0  0  0  0  0  0  0
    7.6332   -6.5041   17.3535 C   0  0  0  0  0  0  0  0  0  0  0  0
    3.8550  -10.6808   18.6840 N   0  0  0  0  0  0  0  0  0  0  0  0
   11.0986   -3.3658   21.2207 C   0  0  0  0  0  0  0  0  0  0  0  0
    1.1160  -11.8135   21.0849 C   0  0  0  0  0  0  0  0  0  0  0  0
    4.7306   -8.9915   17.4326 C   0  0  0  0  0  0  0  0  0  0  0  0
   -1.3063  -10.5114   21.2530 C   0  0  0  0  0  0  0  0  0  0  0  0
    3.4124   -9.2810   17.0553 N   0  0  0  0  0  0  0  0  0  0  0  0
    9.4002   -4.2777   15.9890 C   0  0  0  0  0  0  0  0  0  0  0  0
   11.2565   -2.8190   18.8531 C   0  0  0  0  0  0  0  0  0  0  0  0
    1.3860   -9.2081   16.0076 C   0  0  0  0  0  0  0  0  0  0  0  0
   -0.6049  -10.8692   22.4441 C   0  0  0  0  0  0  0  0  0  0  0  0
    7.5780   -5.9951   16.0165 C   0  0  0  0  0  0  0  0  0  0  0  0
   -0.7359  -10.8450   20.0542 C   0  0  0  0  0  0  0  0  0  0  0  0
    1.0240  -11.7443   18.6054 C   0  0  0  0  0  0  0  0  0  0  0  0
    2.6597   -8.7525   16.1422 C   0  0  0  0  0  0  0  0  0  0  0  0
   10.7697   -3.6382   19.8893 C   0  0  0  0  0  0  0  0  0  0  0  0
    1.5848  -10.7455   17.7777 C   0  0  0  0  0  0  0  0  0  0  0  0
    5.6785   -7.4130   15.7047 C   0  0  0  0  0  0  0  0  0  0  0  0
  1 19  2  0
  2 24  4  0
  2 28  4  0
  3 19  1  0
  4 26  4  0
  4 33  4  0
  5 20  4  0
  5 27  4  0
  6 18  4  0
  6 21  4  0
  7 13  4  0
  7 25  4  0
  8 16  4  0
  8 17  4  0
  9 14  4  0
  9 17  4  0
 10 14  4  0
 10 32  4  0
 11 20  4  0
 11 29  4  0
 11 30  1  0
 12 18  4  0
 12 23  4  0
 12 33  4  0
 13 14  4  0
 13 24  4  0
 15 28  4  0
 15 34  4  0
 16 21  1  0
 16 34  4  0
 17 28  4  0
 19 32  1  0
 21 23  4  0
 22 27  4  0
 22 29  4  0
 23 31  4  0
 25 32  4  0
 26 31  4  0
 30 33  1  0
M  END
$$$$

 Created by Python create_sdf_string function

 34 39  0  0  0  0  0  0  0  0999 V2000
   11.7748   -2.4134   21.4869 O   0  0  0  0  0  0  0  0  0  0  0  0
    8.4571   -5.0280   15.5489 C   0  0  0  0  0  0  0  0  0  0  0  0
   10.6373   -4.1527   22.1338 O   0  0  0  0  0  0  0  0  0  0  0  0
    0.8865  -10.1736   16.8062 N   0  0  0  0  0  0  0  0  0  0  0  0
    0.6363  -11.5685   22.3514 C   0  0  0  0  0  0  0  0  0  0  0  0
    4.9382   -9.8865   18.4135 C   0  0  0  0  0  0  0  0  0  0  0  0
   10.8301   -3.1290   17.5832 C   0  0  0  0  0  0  0  0  0  0  0  0
    6.7438   -7.4973   17.7359 C   0  0  0  0  0  0  0  0  0  0  0  0
    8.5781   -5.9390   18.1797 N   0  0  0  0  0  0  0  0  0  0  0  0
    9.9427   -4.7068   19.6371 C   0  0  0  0  0  0  0  0  0  0  0  0
    0.4794  -11.4482   19.9323 C   0  0  0  0  0  0  0  0  0  0  0  0
    2.8970  -10.2853   17.8533 C   0  0  0  0  0  0  0  0  0  0  0  0
    9.9066   -4.1176   17.2835 C   0  0  0  0  0  0  0  0  0  0  0  0
    9.4685   -4.9581   18.3697 C   0  0  0  0  0  0  0  0  0  0  0  0
    6.5959   -6.5143   15.2606 C   0  0  0  0  0  0  0  0  0  0  0  0
    5.7287   -7.9676   16.9587 C   0  0  0  0  0  0  0  0  0  0  0  0
    7.6332   -6.5041   17.3535 C   0  0  0  0  0  0  0  0  0  0  0  0
    3.8550  -10.6808   18.6840 N   0  0  0  0  0  0  0  0  0  0  0  0
   11.0986   -3.3658   21.2207 C   0  0  0  0  0  0  0  0  0  0  0  0
    1.1160  -11.8135   21.0849 C   0  0  0  0  0  0  0  0  0  0  0  0
    4.7306   -8.9915   17.4326 C   0  0  0  0  0  0  0  0  0  0  0  0
   -1.3063  -10.5114   21.2530 C   0  0  0  0  0  0  0  0  0  0  0  0
    3.4124   -9.2810   17.0553 N   0  0  0  0  0  0  0  0  0  0  0  0
    9.4002   -4.2777   15.9890 C   0  0  0  0  0  0  0  0  0  0  0  0
   11.2565   -2.8190   18.8531 C   0  0  0  0  0  0  0  0  0  0  0  0
    1.3860   -9.2081   16.0076 C   0  0  0  0  0  0  0  0  0  0  0  0
   -0.6049  -10.8692   22.4441 C   0  0  0  0  0  0  0  0  0  0  0  0
    7.5780   -5.9951   16.0165 C   0  0  0  0  0  0  0  0  0  0  0  0
   -0.7359  -10.8450   20.0542 C   0  0  0  0  0  0  0  0  0  0  0  0
    1.0240  -11.7443   18.6054 C   0  0  0  0  0  0  0  0  0  0  0  0
    2.6597   -8.7525   16.1422 C   0  0  0  0  0  0  0  0  0  0  0  0
   10.7697   -3.6382   19.8893 C   0  0  0  0  0  0  0  0  0  0  0  0
    1.5848  -10.7455   17.7777 C   0  0  0  0  0  0  0  0  0  0  0  0
    5.6785   -7.4130   15.7047 C   0  0  0  0  0  0  0  0  0  0  0  0
  1 19  2  0
  2 24  4  0
  2 28  4  0
  3 19  1  0
  4 26  4  0
  4 33  4  0
  5 20  4  0
  5 27  4  0
  6 18  4  0
  6 21  4  0
  7 13  4  0
  7 25  4  0
  8 16  4  0
  8 17  4  0
  9 14  4  0
  9 17  4  0
 10 14  4  0
 10 32  4  0
 11 20  4  0
 11 29  4  0
 11 30  1  0
 12 18  4  0
 12 23  4  0
 12 33  4  0
 13 14  4  0
 13 24  4  0
 15 28  4  0
 15 34  4  0
 16 21  1  0
 16 34  4  0
 17 28  4  0
 19 32  1  0
 21 23  4  0
 22 27  4  0
 22 29  4  0
 23 31  4  0
 25 32  4  0
 26 31  4  0
 30 33  1  0
M  END
$$$$

 Created by Python create_sdf_string function

 34 39  0  0  0  0  0  0  0  0999 V2000
   11.7748   -2.4134   21.4869 O   0  0  0  0  0  0  0  0  0  0  0  0
    8.4571   -5.0280   15.5489 C   0  0  0  0  0  0  0  0  0  0  0  0
   10.6373   -4.1527   22.1338 O   0  0  0  0  0  0  0  0  0  0  0  0
    0.8865  -10.1736   16.8062 N   0  0  0  0  0  0  0  0  0  0  0  0
    0.6363  -11.5685   22.3514 C   0  0  0  0  0  0  0  0  0  0  0  0
    4.9382   -9.8865   18.4135 C   0  0  0  0  0  0  0  0  0  0  0  0
   10.8301   -3.1290   17.5832 C   0  0  0  0  0  0  0  0  0  0  0  0
    6.7438   -7.4973   17.7359 C   0  0  0  0  0  0  0  0  0  0  0  0
    8.5781   -5.9390   18.1797 N   0  0  0  0  0  0  0  0  0  0  0  0
    9.9427   -4.7068   19.6371 C   0  0  0  0  0  0  0  0  0  0  0  0
    0.4794  -11.4482   19.9323 C   0  0  0  0  0  0  0  0  0  0  0  0
    2.8970  -10.2853   17.8533 C   0  0  0  0  0  0  0  0  0  0  0  0
    9.9066   -4.1176   17.2835 C   0  0  0  0  0  0  0  0  0  0  0  0
    9.4685   -4.9581   18.3697 C   0  0  0  0  0  0  0  0  0  0  0  0
    6.5959   -6.5143   15.2606 C   0  0  0  0  0  0  0  0  0  0  0  0
    5.7287   -7.9676   16.9587 C   0  0  0  0  0  0  0  0  0  0  0  0
    7.6332   -6.5041   17.3535 C   0  0  0  0  0  0  0  0  0  0  0  0
    3.8550  -10.6808   18.6840 N   0  0  0  0  0  0  0  0  0  0  0  0
   11.0986   -3.3658   21.2207 C   0  0  0  0  0  0  0  0  0  0  0  0
    1.1160  -11.8135   21.0849 C   0  0  0  0  0  0  0  0  0  0  0  0
    4.7306   -8.9915   17.4326 C   0  0  0  0  0  0  0  0  0  0  0  0
   -1.3063  -10.5114   21.2530 C   0  0  0  0  0  0  0  0  0  0  0  0
    3.4124   -9.2810   17.0553 N   0  0  0  0  0  0  0  0  0  0  0  0
    9.4002   -4.2777   15.9890 C   0  0  0  0  0  0  0  0  0  0  0  0
   11.2565   -2.8190   18.8531 C   0  0  0  0  0  0  0  0  0  0  0  0
    1.3860   -9.2081   16.0076 C   0  0  0  0  0  0  0  0  0  0  0  0
   -0.6049  -10.8692   22.4441 C   0  0  0  0  0  0  0  0  0  0  0  0
    7.5780   -5.9951   16.0165 C   0  0  0  0  0  0  0  0  0  0  0  0
   -0.7359  -10.8450   20.0542 C   0  0  0  0  0  0  0  0  0  0  0  0
    1.0240  -11.7443   18.6054 C   0  0  0  0  0  0  0  0  0  0  0  0
    2.6597   -8.7525   16.1422 C   0  0  0  0  0  0  0  0  0  0  0  0
   10.7697   -3.6382   19.8893 C   0  0  0  0  0  0  0  0  0  0  0  0
    1.5848  -10.7455   17.7777 C   0  0  0  0  0  0  0  0  0  0  0  0
    5.6785   -7.4130   15.7047 C   0  0  0  0  0  0  0  0  0  0  0  0
  1 19  2  0
  2 24  4  0
  2 28  4  0
  3 19  1  0
  4 26  4  0
  4 33  4  0
  5 20  4  0
  5 27  4  0
  6 18  4  0
  6 21  4  0
  7 13  4  0
  7 25  4  0
  8 16  4  0
  8 17  4  0
  9 14  4  0
  9 17  4  0
 10 14  4  0
 10 32  4  0
 11 20  4  0
 11 29  4  0
 11 30  1  0
 12 18  4  0
 12 23  4  0
 12 33  4  0
 13 14  4  0
 13 24  4  0
 15 28  4  0
 15 34  4  0
 16 21  1  0
 16 34  4  0
 17 28  4  0
 19 32  1  0
 21 23  4  0
 22 27  4  0
 22 29  4  0
 23 31  4  0
 25 32  4  0
 26 31  4  0
 30 33  1  0
M  END
$$$$

 Created by Python create_sdf_string function

 34 39  0  0  0  0  0  0  0  0999 V2000
   11.7748   -2.4134   21.4869 O   0  0  0  0  0  0  0  0  0  0  0  0
    8.4571   -5.0280   15.5489 C   0  0  0  0  0  0  0  0  0  0  0  0
   10.6373   -4.1527   22.1338 O   0  0  0  0  0  0  0  0  0  0  0  0
    0.8865  -10.1736   16.8062 N   0  0  0  0  0  0  0  0  0  0  0  0
    0.6363  -11.5685   22.3514 C   0  0  0  0  0  0  0  0  0  0  0  0
    4.9382   -9.8865   18.4135 C   0  0  0  0  0  0  0  0  0  0  0  0
   10.8301   -3.1290   17.5832 C   0  0  0  0  0  0  0  0  0  0  0  0
    6.7438   -7.4973   17.7359 C   0  0  0  0  0  0  0  0  0  0  0  0
    8.5781   -5.9390   18.1797 N   0  0  0  0  0  0  0  0  0  0  0  0
    9.9427   -4.7068   19.6371 C   0  0  0  0  0  0  0  0  0  0  0  0
    0.4794  -11.4482   19.9323 C   0  0  0  0  0  0  0  0  0  0  0  0
    2.8970  -10.2853   17.8533 C   0  0  0  0  0  0  0  0  0  0  0  0
    9.9066   -4.1176   17.2835 C   0  0  0  0  0  0  0  0  0  0  0  0
    9.4685   -4.9581   18.3697 C   0  0  0  0  0  0  0  0  0  0  0  0
    6.5959   -6.5143   15.2606 C   0  0  0  0  0  0  0  0  0  0  0  0
    5.7287   -7.9676   16.9587 C   0  0  0  0  0  0  0  0  0  0  0  0
    7.6332   -6.5041   17.3535 C   0  0  0  0  0  0  0  0  0  0  0  0
    3.8550  -10.6808   18.6840 N   0  0  0  0  0  0  0  0  0  0  0  0
   11.0986   -3.3658   21.2207 C   0  0  0  0  0  0  0  0  0  0  0  0
    1.1160  -11.8135   21.0849 C   0  0  0  0  0  0  0  0  0  0  0  0
    4.7306   -8.9915   17.4326 C   0  0  0  0  0  0  0  0  0  0  0  0
   -1.3063  -10.5114   21.2530 C   0  0  0  0  0  0  0  0  0  0  0  0
    3.4124   -9.2810   17.0553 N   0  0  0  0  0  0  0  0  0  0  0  0
    9.4002   -4.2777   15.9890 C   0  0  0  0  0  0  0  0  0  0  0  0
   11.2565   -2.8190   18.8531 C   0  0  0  0  0  0  0  0  0  0  0  0
    1.3860   -9.2081   16.0076 C   0  0  0  0  0  0  0  0  0  0  0  0
   -0.6049  -10.8692   22.4441 C   0  0  0  0  0  0  0  0  0  0  0  0
    7.5780   -5.9951   16.0165 C   0  0  0  0  0  0  0  0  0  0  0  0
   -0.7359  -10.8450   20.0542 C   0  0  0  0  0  0  0  0  0  0  0  0
    1.0240  -11.7443   18.6054 C   0  0  0  0  0  0  0  0  0  0  0  0
    2.6597   -8.7525   16.1422 C   0  0  0  0  0  0  0  0  0  0  0  0
   10.7697   -3.6382   19.8893 C   0  0  0  0  0  0  0  0  0  0  0  0
    1.5848  -10.7455   17.7777 C   0  0  0  0  0  0  0  0  0  0  0  0
    5.6785   -7.4130   15.7047 C   0  0  0  0  0  0  0  0  0  0  0  0
  1 19  2  0
  2 24  4  0
  2 28  4  0
  3 19  1  0
  4 26  4  0
  4 33  4  0
  5 20  4  0
  5 27  4  0
  6 18  4  0
  6 21  4  0
  7 13  4  0
  7 25  4  0
  8 16  4  0
  8 17  4  0
  9 14  4  0
  9 17  4  0
 10 14  4  0
 10 32  4  0
 11 20  4  0
 11 29  4  0
 11 30  1  0
 12 18  4  0
 12 23  4  0
 12 33  4  0
 13 14  4  0
 13 24  4  0
 15 28  4  0
 15 34  4  0
 16 21  1  0
 16 34  4  0
 17 28  4  0
 19 32  1  0
 21 23  4  0
 22 27  4  0
 22 29  4  0
 23 31  4  0
 25 32  4  0
 26 31  4  0
 30 33  1  0
M  END
$$$$

 Created by Python create_sdf_string function

 34 39  0  0  0  0  0  0  0  0999 V2000
   11.7748   -2.4134   21.4869 O   0  0  0  0  0  0  0  0  0  0  0  0
    8.4571   -5.0280   15.5489 C   0  0  0  0  0  0  0  0  0  0  0  0
   10.6373   -4.1527   22.1338 O   0  0  0  0  0  0  0  0  0  0  0  0
    0.8865  -10.1736   16.8062 N   0  0  0  0  0  0  0  0  0  0  0  0
    0.6363  -11.5685   22.3514 C   0  0  0  0  0  0  0  0  0  0  0  0
    4.9382   -9.8865   18.4135 C   0  0  0  0  0  0  0  0  0  0  0  0
   10.8301   -3.1290   17.5832 C   0  0  0  0  0  0  0  0  0  0  0  0
    6.7438   -7.4973   17.7359 C   0  0  0  0  0  0  0  0  0  0  0  0
    8.5781   -5.9390   18.1797 N   0  0  0  0  0  0  0  0  0  0  0  0
    9.9427   -4.7068   19.6371 C   0  0  0  0  0  0  0  0  0  0  0  0
    0.4794  -11.4482   19.9323 C   0  0  0  0  0  0  0  0  0  0  0  0
    2.8970  -10.2853   17.8533 C   0  0  0  0  0  0  0  0  0  0  0  0
    9.9066   -4.1176   17.2835 C   0  0  0  0  0  0  0  0  0  0  0  0
    9.4685   -4.9581   18.3697 C   0  0  0  0  0  0  0  0  0  0  0  0
    6.5959   -6.5143   15.2606 C   0  0  0  0  0  0  0  0  0  0  0  0
    5.7287   -7.9676   16.9587 C   0  0  0  0  0  0  0  0  0  0  0  0
    7.6332   -6.5041   17.3535 C   0  0  0  0  0  0  0  0  0  0  0  0
    3.8550  -10.6808   18.6840 N   0  0  0  0  0  0  0  0  0  0  0  0
   11.0986   -3.3658   21.2207 C   0  0  0  0  0  0  0  0  0  0  0  0
    1.1160  -11.8135   21.0849 C   0  0  0  0  0  0  0  0  0  0  0  0
    4.7306   -8.9915   17.4326 C   0  0  0  0  0  0  0  0  0  0  0  0
   -1.3063  -10.5114   21.2530 C   0  0  0  0  0  0  0  0  0  0  0  0
    3.4124   -9.2810   17.0553 N   0  0  0  0  0  0  0  0  0  0  0  0
    9.4002   -4.2777   15.9890 C   0  0  0  0  0  0  0  0  0  0  0  0
   11.2565   -2.8190   18.8531 C   0  0  0  0  0  0  0  0  0  0  0  0
    1.3860   -9.2081   16.0076 C   0  0  0  0  0  0  0  0  0  0  0  0
   -0.6049  -10.8692   22.4441 C   0  0  0  0  0  0  0  0  0  0  0  0
    7.5780   -5.9951   16.0165 C   0  0  0  0  0  0  0  0  0  0  0  0
   -0.7359  -10.8450   20.0542 C   0  0  0  0  0  0  0  0  0  0  0  0
    1.0240  -11.7443   18.6054 C   0  0  0  0  0  0  0  0  0  0  0  0
    2.6597   -8.7525   16.1422 C   0  0  0  0  0  0  0  0  0  0  0  0
   10.7697   -3.6382   19.8893 C   0  0  0  0  0  0  0  0  0  0  0  0
    1.5848  -10.7455   17.7777 C   0  0  0  0  0  0  0  0  0  0  0  0
    5.6785   -7.4130   15.7047 C   0  0  0  0  0  0  0  0  0  0  0  0
  1 19  2  0
  2 24  4  0
  2 28  4  0
  3 19  1  0
  4 26  4  0
  4 33  4  0
  5 20  4  0
  5 27  4  0
  6 18  4  0
  6 21  4  0
  7 13  4  0
  7 25  4  0
  8 16  4  0
  8 17  4  0
  9 14  4  0
  9 17  4  0
 10 14  4  0
 10 32  4  0
 11 20  4  0
 11 29  4  0
 11 30  1  0
 12 18  4  0
 12 23  4  0
 12 33  4  0
 13 14  4  0
 13 24  4  0
 15 28  4  0
 15 34  4  0
 16 21  1  0
 16 34  4  0
 17 28  4  0
 19 32  1  0
 21 23  4  0
 22 27  4  0
 22 29  4  0
 23 31  4  0
 25 32  4  0
 26 31  4  0
 30 33  1  0
M  END
$$$$

 Created by Python create_sdf_string function

 34 39  0  0  0  0  0  0  0  0999 V2000
   11.7748   -2.4134   21.4869 O   0  0  0  0  0  0  0  0  0  0  0  0
    8.4571   -5.0280   15.5489 C   0  0  0  0  0  0  0  0  0  0  0  0
   10.6373   -4.1527   22.1338 O   0  0  0  0  0  0  0  0  0  0  0  0
    0.8865  -10.1736   16.8062 N   0  0  0  0  0  0  0  0  0  0  0  0
    0.6363  -11.5685   22.3514 C   0  0  0  0  0  0  0  0  0  0  0  0
    4.9382   -9.8865   18.4135 C   0  0  0  0  0  0  0  0  0  0  0  0
   10.8301   -3.1290   17.5832 C   0  0  0  0  0  0  0  0  0  0  0  0
    6.7438   -7.4973   17.7359 C   0  0  0  0  0  0  0  0  0  0  0  0
    8.5781   -5.9390   18.1797 N   0  0  0  0  0  0  0  0  0  0  0  0
    9.9427   -4.7068   19.6371 C   0  0  0  0  0  0  0  0  0  0  0  0
    0.4794  -11.4482   19.9323 C   0  0  0  0  0  0  0  0  0  0  0  0
    2.8970  -10.2853   17.8533 C   0  0  0  0  0  0  0  0  0  0  0  0
    9.9066   -4.1176   17.2835 C   0  0  0  0  0  0  0  0  0  0  0  0
    9.4685   -4.9581   18.3697 C   0  0  0  0  0  0  0  0  0  0  0  0
    6.5959   -6.5143   15.2606 C   0  0  0  0  0  0  0  0  0  0  0  0
    5.7287   -7.9676   16.9587 C   0  0  0  0  0  0  0  0  0  0  0  0
    7.6332   -6.5041   17.3535 C   0  0  0  0  0  0  0  0  0  0  0  0
    3.8550  -10.6808   18.6840 N   0  0  0  0  0  0  0  0  0  0  0  0
   11.0986   -3.3658   21.2207 C   0  0  0  0  0  0  0  0  0  0  0  0
    1.1160  -11.8135   21.0849 C   0  0  0  0  0  0  0  0  0  0  0  0
    4.7306   -8.9915   17.4326 C   0  0  0  0  0  0  0  0  0  0  0  0
   -1.3063  -10.5114   21.2530 C   0  0  0  0  0  0  0  0  0  0  0  0
    3.4124   -9.2810   17.0553 N   0  0  0  0  0  0  0  0  0  0  0  0
    9.4002   -4.2777   15.9890 C   0  0  0  0  0  0  0  0  0  0  0  0
   11.2565   -2.8190   18.8531 C   0  0  0  0  0  0  0  0  0  0  0  0
    1.3860   -9.2081   16.0076 C   0  0  0  0  0  0  0  0  0  0  0  0
   -0.6049  -10.8692   22.4441 C   0  0  0  0  0  0  0  0  0  0  0  0
    7.5780   -5.9951   16.0165 C   0  0  0  0  0  0  0  0  0  0  0  0
   -0.7359  -10.8450   20.0542 C   0  0  0  0  0  0  0  0  0  0  0  0
    1.0240  -11.7443   18.6054 C   0  0  0  0  0  0  0  0  0  0  0  0
    2.6597   -8.7525   16.1422 C   0  0  0  0  0  0  0  0  0  0  0  0
   10.7697   -3.6382   19.8893 C   0  0  0  0  0  0  0  0  0  0  0  0
    1.5848  -10.7455   17.7777 C   0  0  0  0  0  0  0  0  0  0  0  0
    5.6785   -7.4130   15.7047 C   0  0  0  0  0  0  0  0  0  0  0  0
  1 19  2  0
  2 24  4  0
  2 28  4  0
  3 19  1  0
  4 26  4  0
  4 33  4  0
  5 20  4  0
  5 27  4  0
  6 18  4  0
  6 21  4  0
  7 13  4  0
  7 25  4  0
  8 16  4  0
  8 17  4  0
  9 14  4  0
  9 17  4  0
 10 14  4  0
 10 32  4  0
 11 20  4  0
 11 29  4  0
 11 30  1  0
 12 18  4  0
 12 23  4  0
 12 33  4  0
 13 14  4  0
 13 24  4  0
 15 28  4  0
 15 34  4  0
 16 21  1  0
 16 34  4  0
 17 28  4  0
 19 32  1  0
 21 23  4  0
 22 27  4  0
 22 29  4  0
 23 31  4  0
 25 32  4  0
 26 31  4  0
 30 33  1  0
M  END
$$$$

 Created by Python create_sdf_string function

 34 39  0  0  0  0  0  0  0  0999 V2000
   11.7748   -2.4134   21.4869 O   0  0  0  0  0  0  0  0  0  0  0  0
    8.4571   -5.0280   15.5489 C   0  0  0  0  0  0  0  0  0  0  0  0
   10.6373   -4.1527   22.1338 O   0  0  0  0  0  0  0  0  0  0  0  0
    0.8865  -10.1736   16.8062 N   0  0  0  0  0  0  0  0  0  0  0  0
    0.6363  -11.5685   22.3514 C   0  0  0  0  0  0  0  0  0  0  0  0
    4.9382   -9.8865   18.4135 C   0  0  0  0  0  0  0  0  0  0  0  0
   10.8301   -3.1290   17.5832 C   0  0  0  0  0  0  0  0  0  0  0  0
    6.7438   -7.4973   17.7359 C   0  0  0  0  0  0  0  0  0  0  0  0
    8.5781   -5.9390   18.1797 N   0  0  0  0  0  0  0  0  0  0  0  0
    9.9427   -4.7068   19.6371 C   0  0  0  0  0  0  0  0  0  0  0  0
    0.4794  -11.4482   19.9323 C   0  0  0  0  0  0  0  0  0  0  0  0
    2.8970  -10.2853   17.8533 C   0  0  0  0  0  0  0  0  0  0  0  0
    9.9066   -4.1176   17.2835 C   0  0  0  0  0  0  0  0  0  0  0  0
    9.4685   -4.9581   18.3697 C   0  0  0  0  0  0  0  0  0  0  0  0
    6.5959   -6.5143   15.2606 C   0  0  0  0  0  0  0  0  0  0  0  0
    5.7287   -7.9676   16.9587 C   0  0  0  0  0  0  0  0  0  0  0  0
    7.6332   -6.5041   17.3535 C   0  0  0  0  0  0  0  0  0  0  0  0
    3.8550  -10.6808   18.6840 N   0  0  0  0  0  0  0  0  0  0  0  0
   11.0986   -3.3658   21.2207 C   0  0  0  0  0  0  0  0  0  0  0  0
    1.1160  -11.8135   21.0849 C   0  0  0  0  0  0  0  0  0  0  0  0
    4.7306   -8.9915   17.4326 C   0  0  0  0  0  0  0  0  0  0  0  0
   -1.3063  -10.5114   21.2530 C   0  0  0  0  0  0  0  0  0  0  0  0
    3.4124   -9.2810   17.0553 N   0  0  0  0  0  0  0  0  0  0  0  0
    9.4002   -4.2777   15.9890 C   0  0  0  0  0  0  0  0  0  0  0  0
   11.2565   -2.8190   18.8531 C   0  0  0  0  0  0  0  0  0  0  0  0
    1.3860   -9.2081   16.0076 C   0  0  0  0  0  0  0  0  0  0  0  0
   -0.6049  -10.8692   22.4441 C   0  0  0  0  0  0  0  0  0  0  0  0
    7.5780   -5.9951   16.0165 C   0  0  0  0  0  0  0  0  0  0  0  0
   -0.7359  -10.8450   20.0542 C   0  0  0  0  0  0  0  0  0  0  0  0
    1.0240  -11.7443   18.6054 C   0  0  0  0  0  0  0  0  0  0  0  0
    2.6597   -8.7525   16.1422 C   0  0  0  0  0  0  0  0  0  0  0  0
   10.7697   -3.6382   19.8893 C   0  0  0  0  0  0  0  0  0  0  0  0
    1.5848  -10.7455   17.7777 C   0  0  0  0  0  0  0  0  0  0  0  0
    5.6785   -7.4130   15.7047 C   0  0  0  0  0  0  0  0  0  0  0  0
  1 19  2  0
  2 24  4  0
  2 28  4  0
  3 19  1  0
  4 26  4  0
  4 33  4  0
  5 20  4  0
  5 27  4  0
  6 18  4  0
  6 21  4  0
  7 13  4  0
  7 25  4  0
  8 16  4  0
  8 17  4  0
  9 14  4  0
  9 17  4  0
 10 14  4  0
 10 32  4  0
 11 20  4  0
 11 29  4  0
 11 30  1  0
 12 18  4  0
 12 23  4  0
 12 33  4  0
 13 14  4  0
 13 24  4  0
 15 28  4  0
 15 34  4  0
 16 21  1  0
 16 34  4  0
 17 28  4  0
 19 32  1  0
 21 23  4  0
 22 27  4  0
 22 29  4  0
 23 31  4  0
 25 32  4  0
 26 31  4  0
 30 33  1  0
M  END
$$$$

 Created by Python create_sdf_string function

 34 39  0  0  0  0  0  0  0  0999 V2000
   11.7748   -2.4134   21.4869 O   0  0  0  0  0  0  0  0  0  0  0  0
    8.4571   -5.0280   15.5489 C   0  0  0  0  0  0  0  0  0  0  0  0
   10.6373   -4.1527   22.1338 O   0  0  0  0  0  0  0  0  0  0  0  0
    0.8865  -10.1736   16.8062 N   0  0  0  0  0  0  0  0  0  0  0  0
    0.6363  -11.5685   22.3514 C   0  0  0  0  0  0  0  0  0  0  0  0
    4.9382   -9.8865   18.4135 C   0  0  0  0  0  0  0  0  0  0  0  0
   10.8301   -3.1290   17.5832 C   0  0  0  0  0  0  0  0  0  0  0  0
    6.7438   -7.4973   17.7359 C   0  0  0  0  0  0  0  0  0  0  0  0
    8.5781   -5.9390   18.1797 N   0  0  0  0  0  0  0  0  0  0  0  0
    9.9427   -4.7068   19.6371 C   0  0  0  0  0  0  0  0  0  0  0  0
    0.4794  -11.4482   19.9323 C   0  0  0  0  0  0  0  0  0  0  0  0
    2.8970  -10.2853   17.8533 C   0  0  0  0  0  0  0  0  0  0  0  0
    9.9066   -4.1176   17.2835 C   0  0  0  0  0  0  0  0  0  0  0  0
    9.4685   -4.9581   18.3697 C   0  0  0  0  0  0  0  0  0  0  0  0
    6.5959   -6.5143   15.2606 C   0  0  0  0  0  0  0  0  0  0  0  0
    5.7287   -7.9676   16.9587 C   0  0  0  0  0  0  0  0  0  0  0  0
    7.6332   -6.5041   17.3535 C   0  0  0  0  0  0  0  0  0  0  0  0
    3.8550  -10.6808   18.6840 N   0  0  0  0  0  0  0  0  0  0  0  0
   11.0986   -3.3658   21.2207 C   0  0  0  0  0  0  0  0  0  0  0  0
    1.1160  -11.8135   21.0849 C   0  0  0  0  0  0  0  0  0  0  0  0
    4.7306   -8.9915   17.4326 C   0  0  0  0  0  0  0  0  0  0  0  0
   -1.3063  -10.5114   21.2530 C   0  0  0  0  0  0  0  0  0  0  0  0
    3.4124   -9.2810   17.0553 N   0  0  0  0  0  0  0  0  0  0  0  0
    9.4002   -4.2777   15.9890 C   0  0  0  0  0  0  0  0  0  0  0  0
   11.2565   -2.8190   18.8531 C   0  0  0  0  0  0  0  0  0  0  0  0
    1.3860   -9.2081   16.0076 C   0  0  0  0  0  0  0  0  0  0  0  0
   -0.6049  -10.8692   22.4441 C   0  0  0  0  0  0  0  0  0  0  0  0
    7.5780   -5.9951   16.0165 C   0  0  0  0  0  0  0  0  0  0  0  0
   -0.7359  -10.8450   20.0542 C   0  0  0  0  0  0  0  0  0  0  0  0
    1.0240  -11.7443   18.6054 C   0  0  0  0  0  0  0  0  0  0  0  0
    2.6597   -8.7525   16.1422 C   0  0  0  0  0  0  0  0  0  0  0  0
   10.7697   -3.6382   19.8893 C   0  0  0  0  0  0  0  0  0  0  0  0
    1.5848  -10.7455   17.7777 C   0  0  0  0  0  0  0  0  0  0  0  0
    5.6785   -7.4130   15.7047 C   0  0  0  0  0  0  0  0  0  0  0  0
  1 19  2  0
  2 24  4  0
  2 28  4  0
  3 19  1  0
  4 26  4  0
  4 33  4  0
  5 20  4  0
  5 27  4  0
  6 18  4  0
  6 21  4  0
  7 13  4  0
  7 25  4  0
  8 16  4  0
  8 17  4  0
  9 14  4  0
  9 17  4  0
 10 14  4  0
 10 32  4  0
 11 20  4  0
 11 29  4  0
 11 30  1  0
 12 18  4  0
 12 23  4  0
 12 33  4  0
 13 14  4  0
 13 24  4  0
 15 28  4  0
 15 34  4  0
 16 21  1  0
 16 34  4  0
 17 28  4  0
 19 32  1  0
 21 23  4  0
 22 27  4  0
 22 29  4  0
 23 31  4  0
 25 32  4  0
 26 31  4  0
 30 33  1  0
M  END
$$$$

 Created by Python create_sdf_string function

 34 39  0  0  0  0  0  0  0  0999 V2000
   11.7748   -2.4134   21.4869 O   0  0  0  0  0  0  0  0  0  0  0  0
    8.4571   -5.0280   15.5489 C   0  0  0  0  0  0  0  0  0  0  0  0
   10.6373   -4.1527   22.1338 O   0  0  0  0  0  0  0  0  0  0  0  0
    0.8865  -10.1736   16.8062 N   0  0  0  0  0  0  0  0  0  0  0  0
    0.6363  -11.5685   22.3514 C   0  0  0  0  0  0  0  0  0  0  0  0
    4.9382   -9.8865   18.4135 C   0  0  0  0  0  0  0  0  0  0  0  0
   10.8301   -3.1290   17.5832 C   0  0  0  0  0  0  0  0  0  0  0  0
    6.7438   -7.4973   17.7359 C   0  0  0  0  0  0  0  0  0  0  0  0
    8.5781   -5.9390   18.1797 N   0  0  0  0  0  0  0  0  0  0  0  0
    9.9427   -4.7068   19.6371 C   0  0  0  0  0  0  0  0  0  0  0  0
    0.4794  -11.4482   19.9323 C   0  0  0  0  0  0  0  0  0  0  0  0
    2.8970  -10.2853   17.8533 C   0  0  0  0  0  0  0  0  0  0  0  0
    9.9066   -4.1176   17.2835 C   0  0  0  0  0  0  0  0  0  0  0  0
    9.4685   -4.9581   18.3697 C   0  0  0  0  0  0  0  0  0  0  0  0
    6.5959   -6.5143   15.2606 C   0  0  0  0  0  0  0  0  0  0  0  0
    5.7287   -7.9676   16.9587 C   0  0  0  0  0  0  0  0  0  0  0  0
    7.6332   -6.5041   17.3535 C   0  0  0  0  0  0  0  0  0  0  0  0
    3.8550  -10.6808   18.6840 N   0  0  0  0  0  0  0  0  0  0  0  0
   11.0986   -3.3658   21.2207 C   0  0  0  0  0  0  0  0  0  0  0  0
    1.1160  -11.8135   21.0849 C   0  0  0  0  0  0  0  0  0  0  0  0
    4.7306   -8.9915   17.4326 C   0  0  0  0  0  0  0  0  0  0  0  0
   -1.3063  -10.5114   21.2530 C   0  0  0  0  0  0  0  0  0  0  0  0
    3.4124   -9.2810   17.0553 N   0  0  0  0  0  0  0  0  0  0  0  0
    9.4002   -4.2777   15.9890 C   0  0  0  0  0  0  0  0  0  0  0  0
   11.2565   -2.8190   18.8531 C   0  0  0  0  0  0  0  0  0  0  0  0
    1.3860   -9.2081   16.0076 C   0  0  0  0  0  0  0  0  0  0  0  0
   -0.6049  -10.8692   22.4441 C   0  0  0  0  0  0  0  0  0  0  0  0
    7.5780   -5.9951   16.0165 C   0  0  0  0  0  0  0  0  0  0  0  0
   -0.7359  -10.8450   20.0542 C   0  0  0  0  0  0  0  0  0  0  0  0
    1.0240  -11.7443   18.6054 C   0  0  0  0  0  0  0  0  0  0  0  0
    2.6597   -8.7525   16.1422 C   0  0  0  0  0  0  0  0  0  0  0  0
   10.7697   -3.6382   19.8893 C   0  0  0  0  0  0  0  0  0  0  0  0
    1.5848  -10.7455   17.7777 C   0  0  0  0  0  0  0  0  0  0  0  0
    5.6785   -7.4130   15.7047 C   0  0  0  0  0  0  0  0  0  0  0  0
  1 19  2  0
  2 24  4  0
  2 28  4  0
  3 19  1  0
  4 26  4  0
  4 33  4  0
  5 20  4  0
  5 27  4  0
  6 18  4  0
  6 21  4  0
  7 13  4  0
  7 25  4  0
  8 16  4  0
  8 17  4  0
  9 14  4  0
  9 17  4  0
 10 14  4  0
 10 32  4  0
 11 20  4  0
 11 29  4  0
 11 30  1  0
 12 18  4  0
 12 23  4  0
 12 33  4  0
 13 14  4  0
 13 24  4  0
 15 28  4  0
 15 34  4  0
 16 21  1  0
 16 34  4  0
 17 28  4  0
 19 32  1  0
 21 23  4  0
 22 27  4  0
 22 29  4  0
 23 31  4  0
 25 32  4  0
 26 31  4  0
 30 33  1  0
M  END
$$$$

 Created by Python create_sdf_string function

 34 39  0  0  0  0  0  0  0  0999 V2000
   11.7748   -2.4134   21.4869 O   0  0  0  0  0  0  0  0  0  0  0  0
    8.4571   -5.0280   15.5489 C   0  0  0  0  0  0  0  0  0  0  0  0
   10.6373   -4.1527   22.1338 O   0  0  0  0  0  0  0  0  0  0  0  0
    0.8865  -10.1736   16.8062 N   0  0  0  0  0  0  0  0  0  0  0  0
    0.6363  -11.5685   22.3514 C   0  0  0  0  0  0  0  0  0  0  0  0
    4.9382   -9.8865   18.4135 C   0  0  0  0  0  0  0  0  0  0  0  0
   10.8301   -3.1290   17.5832 C   0  0  0  0  0  0  0  0  0  0  0  0
    6.7438   -7.4973   17.7359 C   0  0  0  0  0  0  0  0  0  0  0  0
    8.5781   -5.9390   18.1797 N   0  0  0  0  0  0  0  0  0  0  0  0
    9.9427   -4.7068   19.6371 C   0  0  0  0  0  0  0  0  0  0  0  0
    0.4794  -11.4482   19.9323 C   0  0  0  0  0  0  0  0  0  0  0  0
    2.8970  -10.2853   17.8533 C   0  0  0  0  0  0  0  0  0  0  0  0
    9.9066   -4.1176   17.2835 C   0  0  0  0  0  0  0  0  0  0  0  0
    9.4685   -4.9581   18.3697 C   0  0  0  0  0  0  0  0  0  0  0  0
    6.5959   -6.5143   15.2606 C   0  0  0  0  0  0  0  0  0  0  0  0
    5.7287   -7.9676   16.9587 C   0  0  0  0  0  0  0  0  0  0  0  0
    7.6332   -6.5041   17.3535 C   0  0  0  0  0  0  0  0  0  0  0  0
    3.8550  -10.6808   18.6840 N   0  0  0  0  0  0  0  0  0  0  0  0
   11.0986   -3.3658   21.2207 C   0  0  0  0  0  0  0  0  0  0  0  0
    1.1160  -11.8135   21.0849 C   0  0  0  0  0  0  0  0  0  0  0  0
    4.7306   -8.9915   17.4326 C   0  0  0  0  0  0  0  0  0  0  0  0
   -1.3063  -10.5114   21.2530 C   0  0  0  0  0  0  0  0  0  0  0  0
    3.4124   -9.2810   17.0553 N   0  0  0  0  0  0  0  0  0  0  0  0
    9.4002   -4.2777   15.9890 C   0  0  0  0  0  0  0  0  0  0  0  0
   11.2565   -2.8190   18.8531 C   0  0  0  0  0  0  0  0  0  0  0  0
    1.3860   -9.2081   16.0076 C   0  0  0  0  0  0  0  0  0  0  0  0
   -0.6049  -10.8692   22.4441 C   0  0  0  0  0  0  0  0  0  0  0  0
    7.5780   -5.9951   16.0165 C   0  0  0  0  0  0  0  0  0  0  0  0
   -0.7359  -10.8450   20.0542 C   0  0  0  0  0  0  0  0  0  0  0  0
    1.0240  -11.7443   18.6054 C   0  0  0  0  0  0  0  0  0  0  0  0
    2.6597   -8.7525   16.1422 C   0  0  0  0  0  0  0  0  0  0  0  0
   10.7697   -3.6382   19.8893 C   0  0  0  0  0  0  0  0  0  0  0  0
    1.5848  -10.7455   17.7777 C   0  0  0  0  0  0  0  0  0  0  0  0
    5.6785   -7.4130   15.7047 C   0  0  0  0  0  0  0  0  0  0  0  0
  1 19  2  0
  2 24  4  0
  2 28  4  0
  3 19  1  0
  4 26  4  0
  4 33  4  0
  5 20  4  0
  5 27  4  0
  6 18  4  0
  6 21  4  0
  7 13  4  0
  7 25  4  0
  8 16  4  0
  8 17  4  0
  9 14  4  0
  9 17  4  0
 10 14  4  0
 10 32  4  0
 11 20  4  0
 11 29  4  0
 11 30  1  0
 12 18  4  0
 12 23  4  0
 12 33  4  0
 13 14  4  0
 13 24  4  0
 15 28  4  0
 15 34  4  0
 16 21  1  0
 16 34  4  0
 17 28  4  0
 19 32  1  0
 21 23  4  0
 22 27  4  0
 22 29  4  0
 23 31  4  0
 25 32  4  0
 26 31  4  0
 30 33  1  0
M  END
$$$$

 Created by Python create_sdf_string function

 34 39  0  0  0  0  0  0  0  0999 V2000
   11.7748   -2.4134   21.4869 O   0  0  0  0  0  0  0  0  0  0  0  0
    8.4571   -5.0280   15.5489 C   0  0  0  0  0  0  0  0  0  0  0  0
   10.6373   -4.1527   22.1338 O   0  0  0  0  0  0  0  0  0  0  0  0
    0.8865  -10.1736   16.8062 N   0  0  0  0  0  0  0  0  0  0  0  0
    0.6363  -11.5685   22.3514 C   0  0  0  0  0  0  0  0  0  0  0  0
    4.9382   -9.8865   18.4135 C   0  0  0  0  0  0  0  0  0  0  0  0
   10.8301   -3.1290   17.5832 C   0  0  0  0  0  0  0  0  0  0  0  0
    6.7438   -7.4973   17.7359 C   0  0  0  0  0  0  0  0  0  0  0  0
    8.5781   -5.9390   18.1797 N   0  0  0  0  0  0  0  0  0  0  0  0
    9.9427   -4.7068   19.6371 C   0  0  0  0  0  0  0  0  0  0  0  0
    0.4794  -11.4482   19.9323 C   0  0  0  0  0  0  0  0  0  0  0  0
    2.8970  -10.2853   17.8533 C   0  0  0  0  0  0  0  0  0  0  0  0
    9.9066   -4.1176   17.2835 C   0  0  0  0  0  0  0  0  0  0  0  0
    9.4685   -4.9581   18.3697 C   0  0  0  0  0  0  0  0  0  0  0  0
    6.5959   -6.5143   15.2606 C   0  0  0  0  0  0  0  0  0  0  0  0
    5.7287   -7.9676   16.9587 C   0  0  0  0  0  0  0  0  0  0  0  0
    7.6332   -6.5041   17.3535 C   0  0  0  0  0  0  0  0  0  0  0  0
    3.8550  -10.6808   18.6840 N   0  0  0  0  0  0  0  0  0  0  0  0
   11.0986   -3.3658   21.2207 C   0  0  0  0  0  0  0  0  0  0  0  0
    1.1160  -11.8135   21.0849 C   0  0  0  0  0  0  0  0  0  0  0  0
    4.7306   -8.9915   17.4326 C   0  0  0  0  0  0  0  0  0  0  0  0
   -1.3063  -10.5114   21.2530 C   0  0  0  0  0  0  0  0  0  0  0  0
    3.4124   -9.2810   17.0553 N   0  0  0  0  0  0  0  0  0  0  0  0
    9.4002   -4.2777   15.9890 C   0  0  0  0  0  0  0  0  0  0  0  0
   11.2565   -2.8190   18.8531 C   0  0  0  0  0  0  0  0  0  0  0  0
    1.3860   -9.2081   16.0076 C   0  0  0  0  0  0  0  0  0  0  0  0
   -0.6049  -10.8692   22.4441 C   0  0  0  0  0  0  0  0  0  0  0  0
    7.5780   -5.9951   16.0165 C   0  0  0  0  0  0  0  0  0  0  0  0
   -0.7359  -10.8450   20.0542 C   0  0  0  0  0  0  0  0  0  0  0  0
    1.0240  -11.7443   18.6054 C   0  0  0  0  0  0  0  0  0  0  0  0
    2.6597   -8.7525   16.1422 C   0  0  0  0  0  0  0  0  0  0  0  0
   10.7697   -3.6382   19.8893 C   0  0  0  0  0  0  0  0  0  0  0  0
    1.5848  -10.7455   17.7777 C   0  0  0  0  0  0  0  0  0  0  0  0
    5.6785   -7.4130   15.7047 C   0  0  0  0  0  0  0  0  0  0  0  0
  1 19  2  0
  2 24  4  0
  2 28  4  0
  3 19  1  0
  4 26  4  0
  4 33  4  0
  5 20  4  0
  5 27  4  0
  6 18  4  0
  6 21  4  0
  7 13  4  0
  7 25  4  0
  8 16  4  0
  8 17  4  0
  9 14  4  0
  9 17  4  0
 10 14  4  0
 10 32  4  0
 11 20  4  0
 11 29  4  0
 11 30  1  0
 12 18  4  0
 12 23  4  0
 12 33  4  0
 13 14  4  0
 13 24  4  0
 15 28  4  0
 15 34  4  0
 16 21  1  0
 16 34  4  0
 17 28  4  0
 19 32  1  0
 21 23  4  0
 22 27  4  0
 22 29  4  0
 23 31  4  0
 25 32  4  0
 26 31  4  0
 30 33  1  0
M  END
$$$$

 Created by Python create_sdf_string function

 34 39  0  0  0  0  0  0  0  0999 V2000
   11.7748   -2.4134   21.4869 O   0  0  0  0  0  0  0  0  0  0  0  0
    8.4571   -5.0280   15.5489 C   0  0  0  0  0  0  0  0  0  0  0  0
   10.6373   -4.1527   22.1338 O   0  0  0  0  0  0  0  0  0  0  0  0
    0.8865  -10.1736   16.8062 N   0  0  0  0  0  0  0  0  0  0  0  0
    0.6363  -11.5685   22.3514 C   0  0  0  0  0  0  0  0  0  0  0  0
    4.9382   -9.8865   18.4135 C   0  0  0  0  0  0  0  0  0  0  0  0
   10.8301   -3.1290   17.5832 C   0  0  0  0  0  0  0  0  0  0  0  0
    6.7438   -7.4973   17.7359 C   0  0  0  0  0  0  0  0  0  0  0  0
    8.5781   -5.9390   18.1797 N   0  0  0  0  0  0  0  0  0  0  0  0
    9.9427   -4.7068   19.6371 C   0  0  0  0  0  0  0  0  0  0  0  0
    0.4794  -11.4482   19.9323 C   0  0  0  0  0  0  0  0  0  0  0  0
    2.8970  -10.2853   17.8533 C   0  0  0  0  0  0  0  0  0  0  0  0
    9.9066   -4.1176   17.2835 C   0  0  0  0  0  0  0  0  0  0  0  0
    9.4685   -4.9581   18.3697 C   0  0  0  0  0  0  0  0  0  0  0  0
    6.5959   -6.5143   15.2606 C   0  0  0  0  0  0  0  0  0  0  0  0
    5.7287   -7.9676   16.9587 C   0  0  0  0  0  0  0  0  0  0  0  0
    7.6332   -6.5041   17.3535 C   0  0  0  0  0  0  0  0  0  0  0  0
    3.8550  -10.6808   18.6840 N   0  0  0  0  0  0  0  0  0  0  0  0
   11.0986   -3.3658   21.2207 C   0  0  0  0  0  0  0  0  0  0  0  0
    1.1160  -11.8135   21.0849 C   0  0  0  0  0  0  0  0  0  0  0  0
    4.7306   -8.9915   17.4326 C   0  0  0  0  0  0  0  0  0  0  0  0
   -1.3063  -10.5114   21.2530 C   0  0  0  0  0  0  0  0  0  0  0  0
    3.4124   -9.2810   17.0553 N   0  0  0  0  0  0  0  0  0  0  0  0
    9.4002   -4.2777   15.9890 C   0  0  0  0  0  0  0  0  0  0  0  0
   11.2565   -2.8190   18.8531 C   0  0  0  0  0  0  0  0  0  0  0  0
    1.3860   -9.2081   16.0076 C   0  0  0  0  0  0  0  0  0  0  0  0
   -0.6049  -10.8692   22.4441 C   0  0  0  0  0  0  0  0  0  0  0  0
    7.5780   -5.9951   16.0165 C   0  0  0  0  0  0  0  0  0  0  0  0
   -0.7359  -10.8450   20.0542 C   0  0  0  0  0  0  0  0  0  0  0  0
    1.0240  -11.7443   18.6054 C   0  0  0  0  0  0  0  0  0  0  0  0
    2.6597   -8.7525   16.1422 C   0  0  0  0  0  0  0  0  0  0  0  0
   10.7697   -3.6382   19.8893 C   0  0  0  0  0  0  0  0  0  0  0  0
    1.5848  -10.7455   17.7777 C   0  0  0  0  0  0  0  0  0  0  0  0
    5.6785   -7.4130   15.7047 C   0  0  0  0  0  0  0  0  0  0  0  0
  1 19  2  0
  2 24  4  0
  2 28  4  0
  3 19  1  0
  4 26  4  0
  4 33  4  0
  5 20  4  0
  5 27  4  0
  6 18  4  0
  6 21  4  0
  7 13  4  0
  7 25  4  0
  8 16  4  0
  8 17  4  0
  9 14  4  0
  9 17  4  0
 10 14  4  0
 10 32  4  0
 11 20  4  0
 11 29  4  0
 11 30  1  0
 12 18  4  0
 12 23  4  0
 12 33  4  0
 13 14  4  0
 13 24  4  0
 15 28  4  0
 15 34  4  0
 16 21  1  0
 16 34  4  0
 17 28  4  0
 19 32  1  0
 21 23  4  0
 22 27  4  0
 22 29  4  0
 23 31  4  0
 25 32  4  0
 26 31  4  0
 30 33  1  0
M  END
$$$$

 Created by Python create_sdf_string function

 34 39  0  0  0  0  0  0  0  0999 V2000
   11.7748   -2.4134   21.4869 O   0  0  0  0  0  0  0  0  0  0  0  0
    8.4571   -5.0280   15.5489 C   0  0  0  0  0  0  0  0  0  0  0  0
   10.6373   -4.1527   22.1338 O   0  0  0  0  0  0  0  0  0  0  0  0
    0.8865  -10.1736   16.8062 N   0  0  0  0  0  0  0  0  0  0  0  0
    0.6363  -11.5685   22.3514 C   0  0  0  0  0  0  0  0  0  0  0  0
    4.9382   -9.8865   18.4135 C   0  0  0  0  0  0  0  0  0  0  0  0
   10.8301   -3.1290   17.5832 C   0  0  0  0  0  0  0  0  0  0  0  0
    6.7438   -7.4973   17.7359 C   0  0  0  0  0  0  0  0  0  0  0  0
    8.5781   -5.9390   18.1797 N   0  0  0  0  0  0  0  0  0  0  0  0
    9.9427   -4.7068   19.6371 C   0  0  0  0  0  0  0  0  0  0  0  0
    0.4794  -11.4482   19.9323 C   0  0  0  0  0  0  0  0  0  0  0  0
    2.8970  -10.2853   17.8533 C   0  0  0  0  0  0  0  0  0  0  0  0
    9.9066   -4.1176   17.2835 C   0  0  0  0  0  0  0  0  0  0  0  0
    9.4685   -4.9581   18.3697 C   0  0  0  0  0  0  0  0  0  0  0  0
    6.5959   -6.5143   15.2606 C   0  0  0  0  0  0  0  0  0  0  0  0
    5.7287   -7.9676   16.9587 C   0  0  0  0  0  0  0  0  0  0  0  0
    7.6332   -6.5041   17.3535 C   0  0  0  0  0  0  0  0  0  0  0  0
    3.8550  -10.6808   18.6840 N   0  0  0  0  0  0  0  0  0  0  0  0
   11.0986   -3.3658   21.2207 C   0  0  0  0  0  0  0  0  0  0  0  0
    1.1160  -11.8135   21.0849 C   0  0  0  0  0  0  0  0  0  0  0  0
    4.7306   -8.9915   17.4326 C   0  0  0  0  0  0  0  0  0  0  0  0
   -1.3063  -10.5114   21.2530 C   0  0  0  0  0  0  0  0  0  0  0  0
    3.4124   -9.2810   17.0553 N   0  0  0  0  0  0  0  0  0  0  0  0
    9.4002   -4.2777   15.9890 C   0  0  0  0  0  0  0  0  0  0  0  0
   11.2565   -2.8190   18.8531 C   0  0  0  0  0  0  0  0  0  0  0  0
    1.3860   -9.2081   16.0076 C   0  0  0  0  0  0  0  0  0  0  0  0
   -0.6049  -10.8692   22.4441 C   0  0  0  0  0  0  0  0  0  0  0  0
    7.5780   -5.9951   16.0165 C   0  0  0  0  0  0  0  0  0  0  0  0
   -0.7359  -10.8450   20.0542 C   0  0  0  0  0  0  0  0  0  0  0  0
    1.0240  -11.7443   18.6054 C   0  0  0  0  0  0  0  0  0  0  0  0
    2.6597   -8.7525   16.1422 C   0  0  0  0  0  0  0  0  0  0  0  0
   10.7697   -3.6382   19.8893 C   0  0  0  0  0  0  0  0  0  0  0  0
    1.5848  -10.7455   17.7777 C   0  0  0  0  0  0  0  0  0  0  0  0
    5.6785   -7.4130   15.7047 C   0  0  0  0  0  0  0  0  0  0  0  0
  1 19  2  0
  2 24  4  0
  2 28  4  0
  3 19  1  0
  4 26  4  0
  4 33  4  0
  5 20  4  0
  5 27  4  0
  6 18  4  0
  6 21  4  0
  7 13  4  0
  7 25  4  0
  8 16  4  0
  8 17  4  0
  9 14  4  0
  9 17  4  0
 10 14  4  0
 10 32  4  0
 11 20  4  0
 11 29  4  0
 11 30  1  0
 12 18  4  0
 12 23  4  0
 12 33  4  0
 13 14  4  0
 13 24  4  0
 15 28  4  0
 15 34  4  0
 16 21  1  0
 16 34  4  0
 17 28  4  0
 19 32  1  0
 21 23  4  0
 22 27  4  0
 22 29  4  0
 23 31  4  0
 25 32  4  0
 26 31  4  0
 30 33  1  0
M  END
$$$$

 Created by Python create_sdf_string function

 34 39  0  0  0  0  0  0  0  0999 V2000
   11.7748   -2.4134   21.4869 O   0  0  0  0  0  0  0  0  0  0  0  0
    8.4571   -5.0280   15.5489 C   0  0  0  0  0  0  0  0  0  0  0  0
   10.6373   -4.1527   22.1338 O   0  0  0  0  0  0  0  0  0  0  0  0
    0.8865  -10.1736   16.8062 N   0  0  0  0  0  0  0  0  0  0  0  0
    0.6363  -11.5685   22.3514 C   0  0  0  0  0  0  0  0  0  0  0  0
    4.9382   -9.8865   18.4135 C   0  0  0  0  0  0  0  0  0  0  0  0
   10.8301   -3.1290   17.5832 C   0  0  0  0  0  0  0  0  0  0  0  0
    6.7438   -7.4973   17.7359 C   0  0  0  0  0  0  0  0  0  0  0  0
    8.5781   -5.9390   18.1797 N   0  0  0  0  0  0  0  0  0  0  0  0
    9.9427   -4.7068   19.6371 C   0  0  0  0  0  0  0  0  0  0  0  0
    0.4794  -11.4482   19.9323 C   0  0  0  0  0  0  0  0  0  0  0  0
    2.8970  -10.2853   17.8533 C   0  0  0  0  0  0  0  0  0  0  0  0
    9.9066   -4.1176   17.2835 C   0  0  0  0  0  0  0  0  0  0  0  0
    9.4685   -4.9581   18.3697 C   0  0  0  0  0  0  0  0  0  0  0  0
    6.5959   -6.5143   15.2606 C   0  0  0  0  0  0  0  0  0  0  0  0
    5.7287   -7.9676   16.9587 C   0  0  0  0  0  0  0  0  0  0  0  0
    7.6332   -6.5041   17.3535 C   0  0  0  0  0  0  0  0  0  0  0  0
    3.8550  -10.6808   18.6840 N   0  0  0  0  0  0  0  0  0  0  0  0
   11.0986   -3.3658   21.2207 C   0  0  0  0  0  0  0  0  0  0  0  0
    1.1160  -11.8135   21.0849 C   0  0  0  0  0  0  0  0  0  0  0  0
    4.7306   -8.9915   17.4326 C   0  0  0  0  0  0  0  0  0  0  0  0
   -1.3063  -10.5114   21.2530 C   0  0  0  0  0  0  0  0  0  0  0  0
    3.4124   -9.2810   17.0553 N   0  0  0  0  0  0  0  0  0  0  0  0
    9.4002   -4.2777   15.9890 C   0  0  0  0  0  0  0  0  0  0  0  0
   11.2565   -2.8190   18.8531 C   0  0  0  0  0  0  0  0  0  0  0  0
    1.3860   -9.2081   16.0076 C   0  0  0  0  0  0  0  0  0  0  0  0
   -0.6049  -10.8692   22.4441 C   0  0  0  0  0  0  0  0  0  0  0  0
    7.5780   -5.9951   16.0165 C   0  0  0  0  0  0  0  0  0  0  0  0
   -0.7359  -10.8450   20.0542 C   0  0  0  0  0  0  0  0  0  0  0  0
    1.0240  -11.7443   18.6054 C   0  0  0  0  0  0  0  0  0  0  0  0
    2.6597   -8.7525   16.1422 C   0  0  0  0  0  0  0  0  0  0  0  0
   10.7697   -3.6382   19.8893 C   0  0  0  0  0  0  0  0  0  0  0  0
    1.5848  -10.7455   17.7777 C   0  0  0  0  0  0  0  0  0  0  0  0
    5.6785   -7.4130   15.7047 C   0  0  0  0  0  0  0  0  0  0  0  0
  1 19  2  0
  2 24  4  0
  2 28  4  0
  3 19  1  0
  4 26  4  0
  4 33  4  0
  5 20  4  0
  5 27  4  0
  6 18  4  0
  6 21  4  0
  7 13  4  0
  7 25  4  0
  8 16  4  0
  8 17  4  0
  9 14  4  0
  9 17  4  0
 10 14  4  0
 10 32  4  0
 11 20  4  0
 11 29  4  0
 11 30  1  0
 12 18  4  0
 12 23  4  0
 12 33  4  0
 13 14  4  0
 13 24  4  0
 15 28  4  0
 15 34  4  0
 16 21  1  0
 16 34  4  0
 17 28  4  0
 19 32  1  0
 21 23  4  0
 22 27  4  0
 22 29  4  0
 23 31  4  0
 25 32  4  0
 26 31  4  0
 30 33  1  0
M  END
$$$$

 Created by Python create_sdf_string function

 34 39  0  0  0  0  0  0  0  0999 V2000
   11.7748   -2.4134   21.4869 O   0  0  0  0  0  0  0  0  0  0  0  0
    8.4571   -5.0280   15.5489 C   0  0  0  0  0  0  0  0  0  0  0  0
   10.6373   -4.1527   22.1338 O   0  0  0  0  0  0  0  0  0  0  0  0
    0.8865  -10.1736   16.8062 N   0  0  0  0  0  0  0  0  0  0  0  0
    0.6363  -11.5685   22.3514 C   0  0  0  0  0  0  0  0  0  0  0  0
    4.9382   -9.8865   18.4135 C   0  0  0  0  0  0  0  0  0  0  0  0
   10.8301   -3.1290   17.5832 C   0  0  0  0  0  0  0  0  0  0  0  0
    6.7438   -7.4973   17.7359 C   0  0  0  0  0  0  0  0  0  0  0  0
    8.5781   -5.9390   18.1797 N   0  0  0  0  0  0  0  0  0  0  0  0
    9.9427   -4.7068   19.6371 C   0  0  0  0  0  0  0  0  0  0  0  0
    0.4794  -11.4482   19.9323 C   0  0  0  0  0  0  0  0  0  0  0  0
    2.8970  -10.2853   17.8533 C   0  0  0  0  0  0  0  0  0  0  0  0
    9.9066   -4.1176   17.2835 C   0  0  0  0  0  0  0  0  0  0  0  0
    9.4685   -4.9581   18.3697 C   0  0  0  0  0  0  0  0  0  0  0  0
    6.5959   -6.5143   15.2606 C   0  0  0  0  0  0  0  0  0  0  0  0
    5.7287   -7.9676   16.9587 C   0  0  0  0  0  0  0  0  0  0  0  0
    7.6332   -6.5041   17.3535 C   0  0  0  0  0  0  0  0  0  0  0  0
    3.8550  -10.6808   18.6840 N   0  0  0  0  0  0  0  0  0  0  0  0
   11.0986   -3.3658   21.2207 C   0  0  0  0  0  0  0  0  0  0  0  0
    1.1160  -11.8135   21.0849 C   0  0  0  0  0  0  0  0  0  0  0  0
    4.7306   -8.9915   17.4326 C   0  0  0  0  0  0  0  0  0  0  0  0
   -1.3063  -10.5114   21.2530 C   0  0  0  0  0  0  0  0  0  0  0  0
    3.4124   -9.2810   17.0553 N   0  0  0  0  0  0  0  0  0  0  0  0
    9.4002   -4.2777   15.9890 C   0  0  0  0  0  0  0  0  0  0  0  0
   11.2565   -2.8190   18.8531 C   0  0  0  0  0  0  0  0  0  0  0  0
    1.3860   -9.2081   16.0076 C   0  0  0  0  0  0  0  0  0  0  0  0
   -0.6049  -10.8692   22.4441 C   0  0  0  0  0  0  0  0  0  0  0  0
    7.5780   -5.9951   16.0165 C   0  0  0  0  0  0  0  0  0  0  0  0
   -0.7359  -10.8450   20.0542 C   0  0  0  0  0  0  0  0  0  0  0  0
    1.0240  -11.7443   18.6054 C   0  0  0  0  0  0  0  0  0  0  0  0
    2.6597   -8.7525   16.1422 C   0  0  0  0  0  0  0  0  0  0  0  0
   10.7697   -3.6382   19.8893 C   0  0  0  0  0  0  0  0  0  0  0  0
    1.5848  -10.7455   17.7777 C   0  0  0  0  0  0  0  0  0  0  0  0
    5.6785   -7.4130   15.7047 C   0  0  0  0  0  0  0  0  0  0  0  0
  1 19  2  0
  2 24  4  0
  2 28  4  0
  3 19  1  0
  4 26  4  0
  4 33  4  0
  5 20  4  0
  5 27  4  0
  6 18  4  0
  6 21  4  0
  7 13  4  0
  7 25  4  0
  8 16  4  0
  8 17  4  0
  9 14  4  0
  9 17  4  0
 10 14  4  0
 10 32  4  0
 11 20  4  0
 11 29  4  0
 11 30  1  0
 12 18  4  0
 12 23  4  0
 12 33  4  0
 13 14  4  0
 13 24  4  0
 15 28  4  0
 15 34  4  0
 16 21  1  0
 16 34  4  0
 17 28  4  0
 19 32  1  0
 21 23  4  0
 22 27  4  0
 22 29  4  0
 23 31  4  0
 25 32  4  0
 26 31  4  0
 30 33  1  0
M  END
$$$$

 Created by Python create_sdf_string function

 34 39  0  0  0  0  0  0  0  0999 V2000
   11.7748   -2.4134   21.4869 O   0  0  0  0  0  0  0  0  0  0  0  0
    8.4571   -5.0280   15.5489 C   0  0  0  0  0  0  0  0  0  0  0  0
   10.6373   -4.1527   22.1338 O   0  0  0  0  0  0  0  0  0  0  0  0
    0.8865  -10.1736   16.8062 N   0  0  0  0  0  0  0  0  0  0  0  0
    0.6363  -11.5685   22.3514 C   0  0  0  0  0  0  0  0  0  0  0  0
    4.9382   -9.8865   18.4135 C   0  0  0  0  0  0  0  0  0  0  0  0
   10.8301   -3.1290   17.5832 C   0  0  0  0  0  0  0  0  0  0  0  0
    6.7438   -7.4973   17.7359 C   0  0  0  0  0  0  0  0  0  0  0  0
    8.5781   -5.9390   18.1797 N   0  0  0  0  0  0  0  0  0  0  0  0
    9.9427   -4.7068   19.6371 C   0  0  0  0  0  0  0  0  0  0  0  0
    0.4794  -11.4482   19.9323 C   0  0  0  0  0  0  0  0  0  0  0  0
    2.8970  -10.2853   17.8533 C   0  0  0  0  0  0  0  0  0  0  0  0
    9.9066   -4.1176   17.2835 C   0  0  0  0  0  0  0  0  0  0  0  0
    9.4685   -4.9581   18.3697 C   0  0  0  0  0  0  0  0  0  0  0  0
    6.5959   -6.5143   15.2606 C   0  0  0  0  0  0  0  0  0  0  0  0
    5.7287   -7.9676   16.9587 C   0  0  0  0  0  0  0  0  0  0  0  0
    7.6332   -6.5041   17.3535 C   0  0  0  0  0  0  0  0  0  0  0  0
    3.8550  -10.6808   18.6840 N   0  0  0  0  0  0  0  0  0  0  0  0
   11.0986   -3.3658   21.2207 C   0  0  0  0  0  0  0  0  0  0  0  0
    1.1160  -11.8135   21.0849 C   0  0  0  0  0  0  0  0  0  0  0  0
    4.7306   -8.9915   17.4326 C   0  0  0  0  0  0  0  0  0  0  0  0
   -1.3063  -10.5114   21.2530 C   0  0  0  0  0  0  0  0  0  0  0  0
    3.4124   -9.2810   17.0553 N   0  0  0  0  0  0  0  0  0  0  0  0
    9.4002   -4.2777   15.9890 C   0  0  0  0  0  0  0  0  0  0  0  0
   11.2565   -2.8190   18.8531 C   0  0  0  0  0  0  0  0  0  0  0  0
    1.3860   -9.2081   16.0076 C   0  0  0  0  0  0  0  0  0  0  0  0
   -0.6049  -10.8692   22.4441 C   0  0  0  0  0  0  0  0  0  0  0  0
    7.5780   -5.9951   16.0165 C   0  0  0  0  0  0  0  0  0  0  0  0
   -0.7359  -10.8450   20.0542 C   0  0  0  0  0  0  0  0  0  0  0  0
    1.0240  -11.7443   18.6054 C   0  0  0  0  0  0  0  0  0  0  0  0
    2.6597   -8.7525   16.1422 C   0  0  0  0  0  0  0  0  0  0  0  0
   10.7697   -3.6382   19.8893 C   0  0  0  0  0  0  0  0  0  0  0  0
    1.5848  -10.7455   17.7777 C   0  0  0  0  0  0  0  0  0  0  0  0
    5.6785   -7.4130   15.7047 C   0  0  0  0  0  0  0  0  0  0  0  0
  1 19  2  0
  2 24  4  0
  2 28  4  0
  3 19  1  0
  4 26  4  0
  4 33  4  0
  5 20  4  0
  5 27  4  0
  6 18  4  0
  6 21  4  0
  7 13  4  0
  7 25  4  0
  8 16  4  0
  8 17  4  0
  9 14  4  0
  9 17  4  0
 10 14  4  0
 10 32  4  0
 11 20  4  0
 11 29  4  0
 11 30  1  0
 12 18  4  0
 12 23  4  0
 12 33  4  0
 13 14  4  0
 13 24  4  0
 15 28  4  0
 15 34  4  0
 16 21  1  0
 16 34  4  0
 17 28  4  0
 19 32  1  0
 21 23  4  0
 22 27  4  0
 22 29  4  0
 23 31  4  0
 25 32  4  0
 26 31  4  0
 30 33  1  0
M  END
$$$$

 Created by Python create_sdf_string function

 34 39  0  0  0  0  0  0  0  0999 V2000
   11.7748   -2.4134   21.4869 O   0  0  0  0  0  0  0  0  0  0  0  0
    8.4571   -5.0280   15.5489 C   0  0  0  0  0  0  0  0  0  0  0  0
   10.6373   -4.1527   22.1338 O   0  0  0  0  0  0  0  0  0  0  0  0
    0.8865  -10.1736   16.8062 N   0  0  0  0  0  0  0  0  0  0  0  0
    0.6363  -11.5685   22.3514 C   0  0  0  0  0  0  0  0  0  0  0  0
    4.9382   -9.8865   18.4135 C   0  0  0  0  0  0  0  0  0  0  0  0
   10.8301   -3.1290   17.5832 C   0  0  0  0  0  0  0  0  0  0  0  0
    6.7438   -7.4973   17.7359 C   0  0  0  0  0  0  0  0  0  0  0  0
    8.5781   -5.9390   18.1797 N   0  0  0  0  0  0  0  0  0  0  0  0
    9.9427   -4.7068   19.6371 C   0  0  0  0  0  0  0  0  0  0  0  0
    0.4794  -11.4482   19.9323 C   0  0  0  0  0  0  0  0  0  0  0  0
    2.8970  -10.2853   17.8533 C   0  0  0  0  0  0  0  0  0  0  0  0
    9.9066   -4.1176   17.2835 C   0  0  0  0  0  0  0  0  0  0  0  0
    9.4685   -4.9581   18.3697 C   0  0  0  0  0  0  0  0  0  0  0  0
    6.5959   -6.5143   15.2606 C   0  0  0  0  0  0  0  0  0  0  0  0
    5.7287   -7.9676   16.9587 C   0  0  0  0  0  0  0  0  0  0  0  0
    7.6332   -6.5041   17.3535 C   0  0  0  0  0  0  0  0  0  0  0  0
    3.8550  -10.6808   18.6840 N   0  0  0  0  0  0  0  0  0  0  0  0
   11.0986   -3.3658   21.2207 C   0  0  0  0  0  0  0  0  0  0  0  0
    1.1160  -11.8135   21.0849 C   0  0  0  0  0  0  0  0  0  0  0  0
    4.7306   -8.9915   17.4326 C   0  0  0  0  0  0  0  0  0  0  0  0
   -1.3063  -10.5114   21.2530 C   0  0  0  0  0  0  0  0  0  0  0  0
    3.4124   -9.2810   17.0553 N   0  0  0  0  0  0  0  0  0  0  0  0
    9.4002   -4.2777   15.9890 C   0  0  0  0  0  0  0  0  0  0  0  0
   11.2565   -2.8190   18.8531 C   0  0  0  0  0  0  0  0  0  0  0  0
    1.3860   -9.2081   16.0076 C   0  0  0  0  0  0  0  0  0  0  0  0
   -0.6049  -10.8692   22.4441 C   0  0  0  0  0  0  0  0  0  0  0  0
    7.5780   -5.9951   16.0165 C   0  0  0  0  0  0  0  0  0  0  0  0
   -0.7359  -10.8450   20.0542 C   0  0  0  0  0  0  0  0  0  0  0  0
    1.0240  -11.7443   18.6054 C   0  0  0  0  0  0  0  0  0  0  0  0
    2.6597   -8.7525   16.1422 C   0  0  0  0  0  0  0  0  0  0  0  0
   10.7697   -3.6382   19.8893 C   0  0  0  0  0  0  0  0  0  0  0  0
    1.5848  -10.7455   17.7777 C   0  0  0  0  0  0  0  0  0  0  0  0
    5.6785   -7.4130   15.7047 C   0  0  0  0  0  0  0  0  0  0  0  0
  1 19  2  0
  2 24  4  0
  2 28  4  0
  3 19  1  0
  4 26  4  0
  4 33  4  0
  5 20  4  0
  5 27  4  0
  6 18  4  0
  6 21  4  0
  7 13  4  0
  7 25  4  0
  8 16  4  0
  8 17  4  0
  9 14  4  0
  9 17  4  0
 10 14  4  0
 10 32  4  0
 11 20  4  0
 11 29  4  0
 11 30  1  0
 12 18  4  0
 12 23  4  0
 12 33  4  0
 13 14  4  0
 13 24  4  0
 15 28  4  0
 15 34  4  0
 16 21  1  0
 16 34  4  0
 17 28  4  0
 19 32  1  0
 21 23  4  0
 22 27  4  0
 22 29  4  0
 23 31  4  0
 25 32  4  0
 26 31  4  0
 30 33  1  0
M  END
$$$$

 Created by Python create_sdf_string function

 34 39  0  0  0  0  0  0  0  0999 V2000
   11.7748   -2.4134   21.4869 O   0  0  0  0  0  0  0  0  0  0  0  0
    8.4571   -5.0280   15.5489 C   0  0  0  0  0  0  0  0  0  0  0  0
   10.6373   -4.1527   22.1338 O   0  0  0  0  0  0  0  0  0  0  0  0
    0.8865  -10.1736   16.8062 N   0  0  0  0  0  0  0  0  0  0  0  0
    0.6363  -11.5685   22.3514 C   0  0  0  0  0  0  0  0  0  0  0  0
    4.9382   -9.8865   18.4135 C   0  0  0  0  0  0  0  0  0  0  0  0
   10.8301   -3.1290   17.5832 C   0  0  0  0  0  0  0  0  0  0  0  0
    6.7438   -7.4973   17.7359 C   0  0  0  0  0  0  0  0  0  0  0  0
    8.5781   -5.9390   18.1797 N   0  0  0  0  0  0  0  0  0  0  0  0
    9.9427   -4.7068   19.6371 C   0  0  0  0  0  0  0  0  0  0  0  0
    0.4794  -11.4482   19.9323 C   0  0  0  0  0  0  0  0  0  0  0  0
    2.8970  -10.2853   17.8533 C   0  0  0  0  0  0  0  0  0  0  0  0
    9.9066   -4.1176   17.2835 C   0  0  0  0  0  0  0  0  0  0  0  0
    9.4685   -4.9581   18.3697 C   0  0  0  0  0  0  0  0  0  0  0  0
    6.5959   -6.5143   15.2606 C   0  0  0  0  0  0  0  0  0  0  0  0
    5.7287   -7.9676   16.9587 C   0  0  0  0  0  0  0  0  0  0  0  0
    7.6332   -6.5041   17.3535 C   0  0  0  0  0  0  0  0  0  0  0  0
    3.8550  -10.6808   18.6840 N   0  0  0  0  0  0  0  0  0  0  0  0
   11.0986   -3.3658   21.2207 C   0  0  0  0  0  0  0  0  0  0  0  0
    1.1160  -11.8135   21.0849 C   0  0  0  0  0  0  0  0  0  0  0  0
    4.7306   -8.9915   17.4326 C   0  0  0  0  0  0  0  0  0  0  0  0
   -1.3063  -10.5114   21.2530 C   0  0  0  0  0  0  0  0  0  0  0  0
    3.4124   -9.2810   17.0553 N   0  0  0  0  0  0  0  0  0  0  0  0
    9.4002   -4.2777   15.9890 C   0  0  0  0  0  0  0  0  0  0  0  0
   11.2565   -2.8190   18.8531 C   0  0  0  0  0  0  0  0  0  0  0  0
    1.3860   -9.2081   16.0076 C   0  0  0  0  0  0  0  0  0  0  0  0
   -0.6049  -10.8692   22.4441 C   0  0  0  0  0  0  0  0  0  0  0  0
    7.5780   -5.9951   16.0165 C   0  0  0  0  0  0  0  0  0  0  0  0
   -0.7359  -10.8450   20.0542 C   0  0  0  0  0  0  0  0  0  0  0  0
    1.0240  -11.7443   18.6054 C   0  0  0  0  0  0  0  0  0  0  0  0
    2.6597   -8.7525   16.1422 C   0  0  0  0  0  0  0  0  0  0  0  0
   10.7697   -3.6382   19.8893 C   0  0  0  0  0  0  0  0  0  0  0  0
    1.5848  -10.7455   17.7777 C   0  0  0  0  0  0  0  0  0  0  0  0
    5.6785   -7.4130   15.7047 C   0  0  0  0  0  0  0  0  0  0  0  0
  1 19  2  0
  2 24  4  0
  2 28  4  0
  3 19  1  0
  4 26  4  0
  4 33  4  0
  5 20  4  0
  5 27  4  0
  6 18  4  0
  6 21  4  0
  7 13  4  0
  7 25  4  0
  8 16  4  0
  8 17  4  0
  9 14  4  0
  9 17  4  0
 10 14  4  0
 10 32  4  0
 11 20  4  0
 11 29  4  0
 11 30  1  0
 12 18  4  0
 12 23  4  0
 12 33  4  0
 13 14  4  0
 13 24  4  0
 15 28  4  0
 15 34  4  0
 16 21  1  0
 16 34  4  0
 17 28  4  0
 19 32  1  0
 21 23  4  0
 22 27  4  0
 22 29  4  0
 23 31  4  0
 25 32  4  0
 26 31  4  0
 30 33  1  0
M  END
$$$$

 Created by Python create_sdf_string function

 34 39  0  0  0  0  0  0  0  0999 V2000
   11.7748   -2.4134   21.4869 O   0  0  0  0  0  0  0  0  0  0  0  0
    8.4571   -5.0280   15.5489 C   0  0  0  0  0  0  0  0  0  0  0  0
   10.6373   -4.1527   22.1338 O   0  0  0  0  0  0  0  0  0  0  0  0
    0.8865  -10.1736   16.8062 N   0  0  0  0  0  0  0  0  0  0  0  0
    0.6363  -11.5685   22.3514 C   0  0  0  0  0  0  0  0  0  0  0  0
    4.9382   -9.8865   18.4135 C   0  0  0  0  0  0  0  0  0  0  0  0
   10.8301   -3.1290   17.5832 C   0  0  0  0  0  0  0  0  0  0  0  0
    6.7438   -7.4973   17.7359 C   0  0  0  0  0  0  0  0  0  0  0  0
    8.5781   -5.9390   18.1797 N   0  0  0  0  0  0  0  0  0  0  0  0
    9.9427   -4.7068   19.6371 C   0  0  0  0  0  0  0  0  0  0  0  0
    0.4794  -11.4482   19.9323 C   0  0  0  0  0  0  0  0  0  0  0  0
    2.8970  -10.2853   17.8533 C   0  0  0  0  0  0  0  0  0  0  0  0
    9.9066   -4.1176   17.2835 C   0  0  0  0  0  0  0  0  0  0  0  0
    9.4685   -4.9581   18.3697 C   0  0  0  0  0  0  0  0  0  0  0  0
    6.5959   -6.5143   15.2606 C   0  0  0  0  0  0  0  0  0  0  0  0
    5.7287   -7.9676   16.9587 C   0  0  0  0  0  0  0  0  0  0  0  0
    7.6332   -6.5041   17.3535 C   0  0  0  0  0  0  0  0  0  0  0  0
    3.8550  -10.6808   18.6840 N   0  0  0  0  0  0  0  0  0  0  0  0
   11.0986   -3.3658   21.2207 C   0  0  0  0  0  0  0  0  0  0  0  0
    1.1160  -11.8135   21.0849 C   0  0  0  0  0  0  0  0  0  0  0  0
    4.7306   -8.9915   17.4326 C   0  0  0  0  0  0  0  0  0  0  0  0
   -1.3063  -10.5114   21.2530 C   0  0  0  0  0  0  0  0  0  0  0  0
    3.4124   -9.2810   17.0553 N   0  0  0  0  0  0  0  0  0  0  0  0
    9.4002   -4.2777   15.9890 C   0  0  0  0  0  0  0  0  0  0  0  0
   11.2565   -2.8190   18.8531 C   0  0  0  0  0  0  0  0  0  0  0  0
    1.3860   -9.2081   16.0076 C   0  0  0  0  0  0  0  0  0  0  0  0
   -0.6049  -10.8692   22.4441 C   0  0  0  0  0  0  0  0  0  0  0  0
    7.5780   -5.9951   16.0165 C   0  0  0  0  0  0  0  0  0  0  0  0
   -0.7359  -10.8450   20.0542 C   0  0  0  0  0  0  0  0  0  0  0  0
    1.0240  -11.7443   18.6054 C   0  0  0  0  0  0  0  0  0  0  0  0
    2.6597   -8.7525   16.1422 C   0  0  0  0  0  0  0  0  0  0  0  0
   10.7697   -3.6382   19.8893 C   0  0  0  0  0  0  0  0  0  0  0  0
    1.5848  -10.7455   17.7777 C   0  0  0  0  0  0  0  0  0  0  0  0
    5.6785   -7.4130   15.7047 C   0  0  0  0  0  0  0  0  0  0  0  0
  1 19  2  0
  2 24  4  0
  2 28  4  0
  3 19  1  0
  4 26  4  0
  4 33  4  0
  5 20  4  0
  5 27  4  0
  6 18  4  0
  6 21  4  0
  7 13  4  0
  7 25  4  0
  8 16  4  0
  8 17  4  0
  9 14  4  0
  9 17  4  0
 10 14  4  0
 10 32  4  0
 11 20  4  0
 11 29  4  0
 11 30  1  0
 12 18  4  0
 12 23  4  0
 12 33  4  0
 13 14  4  0
 13 24  4  0
 15 28  4  0
 15 34  4  0
 16 21  1  0
 16 34  4  0
 17 28  4  0
 19 32  1  0
 21 23  4  0
 22 27  4  0
 22 29  4  0
 23 31  4  0
 25 32  4  0
 26 31  4  0
 30 33  1  0
M  END
$$$$

 Created by Python create_sdf_string function

 34 39  0  0  0  0  0  0  0  0999 V2000
   11.7748   -2.4134   21.4869 O   0  0  0  0  0  0  0  0  0  0  0  0
    8.4571   -5.0280   15.5489 C   0  0  0  0  0  0  0  0  0  0  0  0
   10.6373   -4.1527   22.1338 O   0  0  0  0  0  0  0  0  0  0  0  0
    0.8865  -10.1736   16.8062 N   0  0  0  0  0  0  0  0  0  0  0  0
    0.6363  -11.5685   22.3514 C   0  0  0  0  0  0  0  0  0  0  0  0
    4.9382   -9.8865   18.4135 C   0  0  0  0  0  0  0  0  0  0  0  0
   10.8301   -3.1290   17.5832 C   0  0  0  0  0  0  0  0  0  0  0  0
    6.7438   -7.4973   17.7359 C   0  0  0  0  0  0  0  0  0  0  0  0
    8.5781   -5.9390   18.1797 N   0  0  0  0  0  0  0  0  0  0  0  0
    9.9427   -4.7068   19.6371 C   0  0  0  0  0  0  0  0  0  0  0  0
    0.4794  -11.4482   19.9323 C   0  0  0  0  0  0  0  0  0  0  0  0
    2.8970  -10.2853   17.8533 C   0  0  0  0  0  0  0  0  0  0  0  0
    9.9066   -4.1176   17.2835 C   0  0  0  0  0  0  0  0  0  0  0  0
    9.4685   -4.9581   18.3697 C   0  0  0  0  0  0  0  0  0  0  0  0
    6.5959   -6.5143   15.2606 C   0  0  0  0  0  0  0  0  0  0  0  0
    5.7287   -7.9676   16.9587 C   0  0  0  0  0  0  0  0  0  0  0  0
    7.6332   -6.5041   17.3535 C   0  0  0  0  0  0  0  0  0  0  0  0
    3.8550  -10.6808   18.6840 N   0  0  0  0  0  0  0  0  0  0  0  0
   11.0986   -3.3658   21.2207 C   0  0  0  0  0  0  0  0  0  0  0  0
    1.1160  -11.8135   21.0849 C   0  0  0  0  0  0  0  0  0  0  0  0
    4.7306   -8.9915   17.4326 C   0  0  0  0  0  0  0  0  0  0  0  0
   -1.3063  -10.5114   21.2530 C   0  0  0  0  0  0  0  0  0  0  0  0
    3.4124   -9.2810   17.0553 N   0  0  0  0  0  0  0  0  0  0  0  0
    9.4002   -4.2777   15.9890 C   0  0  0  0  0  0  0  0  0  0  0  0
   11.2565   -2.8190   18.8531 C   0  0  0  0  0  0  0  0  0  0  0  0
    1.3860   -9.2081   16.0076 C   0  0  0  0  0  0  0  0  0  0  0  0
   -0.6049  -10.8692   22.4441 C   0  0  0  0  0  0  0  0  0  0  0  0
    7.5780   -5.9951   16.0165 C   0  0  0  0  0  0  0  0  0  0  0  0
   -0.7359  -10.8450   20.0542 C   0  0  0  0  0  0  0  0  0  0  0  0
    1.0240  -11.7443   18.6054 C   0  0  0  0  0  0  0  0  0  0  0  0
    2.6597   -8.7525   16.1422 C   0  0  0  0  0  0  0  0  0  0  0  0
   10.7697   -3.6382   19.8893 C   0  0  0  0  0  0  0  0  0  0  0  0
    1.5848  -10.7455   17.7777 C   0  0  0  0  0  0  0  0  0  0  0  0
    5.6785   -7.4130   15.7047 C   0  0  0  0  0  0  0  0  0  0  0  0
  1 19  2  0
  2 24  4  0
  2 28  4  0
  3 19  1  0
  4 26  4  0
  4 33  4  0
  5 20  4  0
  5 27  4  0
  6 18  4  0
  6 21  4  0
  7 13  4  0
  7 25  4  0
  8 16  4  0
  8 17  4  0
  9 14  4  0
  9 17  4  0
 10 14  4  0
 10 32  4  0
 11 20  4  0
 11 29  4  0
 11 30  1  0
 12 18  4  0
 12 23  4  0
 12 33  4  0
 13 14  4  0
 13 24  4  0
 15 28  4  0
 15 34  4  0
 16 21  1  0
 16 34  4  0
 17 28  4  0
 19 32  1  0
 21 23  4  0
 22 27  4  0
 22 29  4  0
 23 31  4  0
 25 32  4  0
 26 31  4  0
 30 33  1  0
M  END
$$$$

 Created by Python create_sdf_string function

 34 39  0  0  0  0  0  0  0  0999 V2000
   11.7748   -2.4134   21.4869 O   0  0  0  0  0  0  0  0  0  0  0  0
    8.4571   -5.0280   15.5489 C   0  0  0  0  0  0  0  0  0  0  0  0
   10.6373   -4.1527   22.1338 O   0  0  0  0  0  0  0  0  0  0  0  0
    0.8865  -10.1736   16.8062 N   0  0  0  0  0  0  0  0  0  0  0  0
    0.6363  -11.5685   22.3514 C   0  0  0  0  0  0  0  0  0  0  0  0
    4.9382   -9.8865   18.4135 C   0  0  0  0  0  0  0  0  0  0  0  0
   10.8301   -3.1290   17.5832 C   0  0  0  0  0  0  0  0  0  0  0  0
    6.7438   -7.4973   17.7359 C   0  0  0  0  0  0  0  0  0  0  0  0
    8.5781   -5.9390   18.1797 N   0  0  0  0  0  0  0  0  0  0  0  0
    9.9427   -4.7068   19.6371 C   0  0  0  0  0  0  0  0  0  0  0  0
    0.4794  -11.4482   19.9323 C   0  0  0  0  0  0  0  0  0  0  0  0
    2.8970  -10.2853   17.8533 C   0  0  0  0  0  0  0  0  0  0  0  0
    9.9066   -4.1176   17.2835 C   0  0  0  0  0  0  0  0  0  0  0  0
    9.4685   -4.9581   18.3697 C   0  0  0  0  0  0  0  0  0  0  0  0
    6.5959   -6.5143   15.2606 C   0  0  0  0  0  0  0  0  0  0  0  0
    5.7287   -7.9676   16.9587 C   0  0  0  0  0  0  0  0  0  0  0  0
    7.6332   -6.5041   17.3535 C   0  0  0  0  0  0  0  0  0  0  0  0
    3.8550  -10.6808   18.6840 N   0  0  0  0  0  0  0  0  0  0  0  0
   11.0986   -3.3658   21.2207 C   0  0  0  0  0  0  0  0  0  0  0  0
    1.1160  -11.8135   21.0849 C   0  0  0  0  0  0  0  0  0  0  0  0
    4.7306   -8.9915   17.4326 C   0  0  0  0  0  0  0  0  0  0  0  0
   -1.3063  -10.5114   21.2530 C   0  0  0  0  0  0  0  0  0  0  0  0
    3.4124   -9.2810   17.0553 N   0  0  0  0  0  0  0  0  0  0  0  0
    9.4002   -4.2777   15.9890 C   0  0  0  0  0  0  0  0  0  0  0  0
   11.2565   -2.8190   18.8531 C   0  0  0  0  0  0  0  0  0  0  0  0
    1.3860   -9.2081   16.0076 C   0  0  0  0  0  0  0  0  0  0  0  0
   -0.6049  -10.8692   22.4441 C   0  0  0  0  0  0  0  0  0  0  0  0
    7.5780   -5.9951   16.0165 C   0  0  0  0  0  0  0  0  0  0  0  0
   -0.7359  -10.8450   20.0542 C   0  0  0  0  0  0  0  0  0  0  0  0
    1.0240  -11.7443   18.6054 C   0  0  0  0  0  0  0  0  0  0  0  0
    2.6597   -8.7525   16.1422 C   0  0  0  0  0  0  0  0  0  0  0  0
   10.7697   -3.6382   19.8893 C   0  0  0  0  0  0  0  0  0  0  0  0
    1.5848  -10.7455   17.7777 C   0  0  0  0  0  0  0  0  0  0  0  0
    5.6785   -7.4130   15.7047 C   0  0  0  0  0  0  0  0  0  0  0  0
  1 19  2  0
  2 24  4  0
  2 28  4  0
  3 19  1  0
  4 26  4  0
  4 33  4  0
  5 20  4  0
  5 27  4  0
  6 18  4  0
  6 21  4  0
  7 13  4  0
  7 25  4  0
  8 16  4  0
  8 17  4  0
  9 14  4  0
  9 17  4  0
 10 14  4  0
 10 32  4  0
 11 20  4  0
 11 29  4  0
 11 30  1  0
 12 18  4  0
 12 23  4  0
 12 33  4  0
 13 14  4  0
 13 24  4  0
 15 28  4  0
 15 34  4  0
 16 21  1  0
 16 34  4  0
 17 28  4  0
 19 32  1  0
 21 23  4  0
 22 27  4  0
 22 29  4  0
 23 31  4  0
 25 32  4  0
 26 31  4  0
 30 33  1  0
M  END
$$$$

 Created by Python create_sdf_string function

 34 39  0  0  0  0  0  0  0  0999 V2000
   11.7748   -2.4134   21.4869 O   0  0  0  0  0  0  0  0  0  0  0  0
    8.4571   -5.0280   15.5489 C   0  0  0  0  0  0  0  0  0  0  0  0
   10.6373   -4.1527   22.1338 O   0  0  0  0  0  0  0  0  0  0  0  0
    0.8865  -10.1736   16.8062 N   0  0  0  0  0  0  0  0  0  0  0  0
    0.6363  -11.5685   22.3514 C   0  0  0  0  0  0  0  0  0  0  0  0
    4.9382   -9.8865   18.4135 C   0  0  0  0  0  0  0  0  0  0  0  0
   10.8301   -3.1290   17.5832 C   0  0  0  0  0  0  0  0  0  0  0  0
    6.7438   -7.4973   17.7359 C   0  0  0  0  0  0  0  0  0  0  0  0
    8.5781   -5.9390   18.1797 N   0  0  0  0  0  0  0  0  0  0  0  0
    9.9427   -4.7068   19.6371 C   0  0  0  0  0  0  0  0  0  0  0  0
    0.4794  -11.4482   19.9323 C   0  0  0  0  0  0  0  0  0  0  0  0
    2.8970  -10.2853   17.8533 C   0  0  0  0  0  0  0  0  0  0  0  0
    9.9066   -4.1176   17.2835 C   0  0  0  0  0  0  0  0  0  0  0  0
    9.4685   -4.9581   18.3697 C   0  0  0  0  0  0  0  0  0  0  0  0
    6.5959   -6.5143   15.2606 C   0  0  0  0  0  0  0  0  0  0  0  0
    5.7287   -7.9676   16.9587 C   0  0  0  0  0  0  0  0  0  0  0  0
    7.6332   -6.5041   17.3535 C   0  0  0  0  0  0  0  0  0  0  0  0
    3.8550  -10.6808   18.6840 N   0  0  0  0  0  0  0  0  0  0  0  0
   11.0986   -3.3658   21.2207 C   0  0  0  0  0  0  0  0  0  0  0  0
    1.1160  -11.8135   21.0849 C   0  0  0  0  0  0  0  0  0  0  0  0
    4.7306   -8.9915   17.4326 C   0  0  0  0  0  0  0  0  0  0  0  0
   -1.3063  -10.5114   21.2530 C   0  0  0  0  0  0  0  0  0  0  0  0
    3.4124   -9.2810   17.0553 N   0  0  0  0  0  0  0  0  0  0  0  0
    9.4002   -4.2777   15.9890 C   0  0  0  0  0  0  0  0  0  0  0  0
   11.2565   -2.8190   18.8531 C   0  0  0  0  0  0  0  0  0  0  0  0
    1.3860   -9.2081   16.0076 C   0  0  0  0  0  0  0  0  0  0  0  0
   -0.6049  -10.8692   22.4441 C   0  0  0  0  0  0  0  0  0  0  0  0
    7.5780   -5.9951   16.0165 C   0  0  0  0  0  0  0  0  0  0  0  0
   -0.7359  -10.8450   20.0542 C   0  0  0  0  0  0  0  0  0  0  0  0
    1.0240  -11.7443   18.6054 C   0  0  0  0  0  0  0  0  0  0  0  0
    2.6597   -8.7525   16.1422 C   0  0  0  0  0  0  0  0  0  0  0  0
   10.7697   -3.6382   19.8893 C   0  0  0  0  0  0  0  0  0  0  0  0
    1.5848  -10.7455   17.7777 C   0  0  0  0  0  0  0  0  0  0  0  0
    5.6785   -7.4130   15.7047 C   0  0  0  0  0  0  0  0  0  0  0  0
  1 19  2  0
  2 24  4  0
  2 28  4  0
  3 19  1  0
  4 26  4  0
  4 33  4  0
  5 20  4  0
  5 27  4  0
  6 18  4  0
  6 21  4  0
  7 13  4  0
  7 25  4  0
  8 16  4  0
  8 17  4  0
  9 14  4  0
  9 17  4  0
 10 14  4  0
 10 32  4  0
 11 20  4  0
 11 29  4  0
 11 30  1  0
 12 18  4  0
 12 23  4  0
 12 33  4  0
 13 14  4  0
 13 24  4  0
 15 28  4  0
 15 34  4  0
 16 21  1  0
 16 34  4  0
 17 28  4  0
 19 32  1  0
 21 23  4  0
 22 27  4  0
 22 29  4  0
 23 31  4  0
 25 32  4  0
 26 31  4  0
 30 33  1  0
M  END
$$$$

 Created by Python create_sdf_string function

 34 39  0  0  0  0  0  0  0  0999 V2000
   11.7748   -2.4134   21.4869 O   0  0  0  0  0  0  0  0  0  0  0  0
    8.4571   -5.0280   15.5489 C   0  0  0  0  0  0  0  0  0  0  0  0
   10.6373   -4.1527   22.1338 O   0  0  0  0  0  0  0  0  0  0  0  0
    0.8865  -10.1736   16.8062 N   0  0  0  0  0  0  0  0  0  0  0  0
    0.6363  -11.5685   22.3514 C   0  0  0  0  0  0  0  0  0  0  0  0
    4.9382   -9.8865   18.4135 C   0  0  0  0  0  0  0  0  0  0  0  0
   10.8301   -3.1290   17.5832 C   0  0  0  0  0  0  0  0  0  0  0  0
    6.7438   -7.4973   17.7359 C   0  0  0  0  0  0  0  0  0  0  0  0
    8.5781   -5.9390   18.1797 N   0  0  0  0  0  0  0  0  0  0  0  0
    9.9427   -4.7068   19.6371 C   0  0  0  0  0  0  0  0  0  0  0  0
    0.4794  -11.4482   19.9323 C   0  0  0  0  0  0  0  0  0  0  0  0
    2.8970  -10.2853   17.8533 C   0  0  0  0  0  0  0  0  0  0  0  0
    9.9066   -4.1176   17.2835 C   0  0  0  0  0  0  0  0  0  0  0  0
    9.4685   -4.9581   18.3697 C   0  0  0  0  0  0  0  0  0  0  0  0
    6.5959   -6.5143   15.2606 C   0  0  0  0  0  0  0  0  0  0  0  0
    5.7287   -7.9676   16.9587 C   0  0  0  0  0  0  0  0  0  0  0  0
    7.6332   -6.5041   17.3535 C   0  0  0  0  0  0  0  0  0  0  0  0
    3.8550  -10.6808   18.6840 N   0  0  0  0  0  0  0  0  0  0  0  0
   11.0986   -3.3658   21.2207 C   0  0  0  0  0  0  0  0  0  0  0  0
    1.1160  -11.8135   21.0849 C   0  0  0  0  0  0  0  0  0  0  0  0
    4.7306   -8.9915   17.4326 C   0  0  0  0  0  0  0  0  0  0  0  0
   -1.3063  -10.5114   21.2530 C   0  0  0  0  0  0  0  0  0  0  0  0
    3.4124   -9.2810   17.0553 N   0  0  0  0  0  0  0  0  0  0  0  0
    9.4002   -4.2777   15.9890 C   0  0  0  0  0  0  0  0  0  0  0  0
   11.2565   -2.8190   18.8531 C   0  0  0  0  0  0  0  0  0  0  0  0
    1.3860   -9.2081   16.0076 C   0  0  0  0  0  0  0  0  0  0  0  0
   -0.6049  -10.8692   22.4441 C   0  0  0  0  0  0  0  0  0  0  0  0
    7.5780   -5.9951   16.0165 C   0  0  0  0  0  0  0  0  0  0  0  0
   -0.7359  -10.8450   20.0542 C   0  0  0  0  0  0  0  0  0  0  0  0
    1.0240  -11.7443   18.6054 C   0  0  0  0  0  0  0  0  0  0  0  0
    2.6597   -8.7525   16.1422 C   0  0  0  0  0  0  0  0  0  0  0  0
   10.7697   -3.6382   19.8893 C   0  0  0  0  0  0  0  0  0  0  0  0
    1.5848  -10.7455   17.7777 C   0  0  0  0  0  0  0  0  0  0  0  0
    5.6785   -7.4130   15.7047 C   0  0  0  0  0  0  0  0  0  0  0  0
  1 19  2  0
  2 24  4  0
  2 28  4  0
  3 19  1  0
  4 26  4  0
  4 33  4  0
  5 20  4  0
  5 27  4  0
  6 18  4  0
  6 21  4  0
  7 13  4  0
  7 25  4  0
  8 16  4  0
  8 17  4  0
  9 14  4  0
  9 17  4  0
 10 14  4  0
 10 32  4  0
 11 20  4  0
 11 29  4  0
 11 30  1  0
 12 18  4  0
 12 23  4  0
 12 33  4  0
 13 14  4  0
 13 24  4  0
 15 28  4  0
 15 34  4  0
 16 21  1  0
 16 34  4  0
 17 28  4  0
 19 32  1  0
 21 23  4  0
 22 27  4  0
 22 29  4  0
 23 31  4  0
 25 32  4  0
 26 31  4  0
 30 33  1  0
M  END
$$$$

 Created by Python create_sdf_string function

 34 39  0  0  0  0  0  0  0  0999 V2000
   11.7748   -2.4134   21.4869 O   0  0  0  0  0  0  0  0  0  0  0  0
    8.4571   -5.0280   15.5489 C   0  0  0  0  0  0  0  0  0  0  0  0
   10.6373   -4.1527   22.1338 O   0  0  0  0  0  0  0  0  0  0  0  0
    0.8865  -10.1736   16.8062 N   0  0  0  0  0  0  0  0  0  0  0  0
    0.6363  -11.5685   22.3514 C   0  0  0  0  0  0  0  0  0  0  0  0
    4.9382   -9.8865   18.4135 C   0  0  0  0  0  0  0  0  0  0  0  0
   10.8301   -3.1290   17.5832 C   0  0  0  0  0  0  0  0  0  0  0  0
    6.7438   -7.4973   17.7359 C   0  0  0  0  0  0  0  0  0  0  0  0
    8.5781   -5.9390   18.1797 N   0  0  0  0  0  0  0  0  0  0  0  0
    9.9427   -4.7068   19.6371 C   0  0  0  0  0  0  0  0  0  0  0  0
    0.4794  -11.4482   19.9323 C   0  0  0  0  0  0  0  0  0  0  0  0
    2.8970  -10.2853   17.8533 C   0  0  0  0  0  0  0  0  0  0  0  0
    9.9066   -4.1176   17.2835 C   0  0  0  0  0  0  0  0  0  0  0  0
    9.4685   -4.9581   18.3697 C   0  0  0  0  0  0  0  0  0  0  0  0
    6.5959   -6.5143   15.2606 C   0  0  0  0  0  0  0  0  0  0  0  0
    5.7287   -7.9676   16.9587 C   0  0  0  0  0  0  0  0  0  0  0  0
    7.6332   -6.5041   17.3535 C   0  0  0  0  0  0  0  0  0  0  0  0
    3.8550  -10.6808   18.6840 N   0  0  0  0  0  0  0  0  0  0  0  0
   11.0986   -3.3658   21.2207 C   0  0  0  0  0  0  0  0  0  0  0  0
    1.1160  -11.8135   21.0849 C   0  0  0  0  0  0  0  0  0  0  0  0
    4.7306   -8.9915   17.4326 C   0  0  0  0  0  0  0  0  0  0  0  0
   -1.3063  -10.5114   21.2530 C   0  0  0  0  0  0  0  0  0  0  0  0
    3.4124   -9.2810   17.0553 N   0  0  0  0  0  0  0  0  0  0  0  0
    9.4002   -4.2777   15.9890 C   0  0  0  0  0  0  0  0  0  0  0  0
   11.2565   -2.8190   18.8531 C   0  0  0  0  0  0  0  0  0  0  0  0
    1.3860   -9.2081   16.0076 C   0  0  0  0  0  0  0  0  0  0  0  0
   -0.6049  -10.8692   22.4441 C   0  0  0  0  0  0  0  0  0  0  0  0
    7.5780   -5.9951   16.0165 C   0  0  0  0  0  0  0  0  0  0  0  0
   -0.7359  -10.8450   20.0542 C   0  0  0  0  0  0  0  0  0  0  0  0
    1.0240  -11.7443   18.6054 C   0  0  0  0  0  0  0  0  0  0  0  0
    2.6597   -8.7525   16.1422 C   0  0  0  0  0  0  0  0  0  0  0  0
   10.7697   -3.6382   19.8893 C   0  0  0  0  0  0  0  0  0  0  0  0
    1.5848  -10.7455   17.7777 C   0  0  0  0  0  0  0  0  0  0  0  0
    5.6785   -7.4130   15.7047 C   0  0  0  0  0  0  0  0  0  0  0  0
  1 19  2  0
  2 24  4  0
  2 28  4  0
  3 19  1  0
  4 26  4  0
  4 33  4  0
  5 20  4  0
  5 27  4  0
  6 18  4  0
  6 21  4  0
  7 13  4  0
  7 25  4  0
  8 16  4  0
  8 17  4  0
  9 14  4  0
  9 17  4  0
 10 14  4  0
 10 32  4  0
 11 20  4  0
 11 29  4  0
 11 30  1  0
 12 18  4  0
 12 23  4  0
 12 33  4  0
 13 14  4  0
 13 24  4  0
 15 28  4  0
 15 34  4  0
 16 21  1  0
 16 34  4  0
 17 28  4  0
 19 32  1  0
 21 23  4  0
 22 27  4  0
 22 29  4  0
 23 31  4  0
 25 32  4  0
 26 31  4  0
 30 33  1  0
M  END
$$$$

 Created by Python create_sdf_string function

 34 39  0  0  0  0  0  0  0  0999 V2000
   11.7748   -2.4134   21.4869 O   0  0  0  0  0  0  0  0  0  0  0  0
    8.4571   -5.0280   15.5489 C   0  0  0  0  0  0  0  0  0  0  0  0
   10.6373   -4.1527   22.1338 O   0  0  0  0  0  0  0  0  0  0  0  0
    0.8865  -10.1736   16.8062 N   0  0  0  0  0  0  0  0  0  0  0  0
    0.6363  -11.5685   22.3514 C   0  0  0  0  0  0  0  0  0  0  0  0
    4.9382   -9.8865   18.4135 C   0  0  0  0  0  0  0  0  0  0  0  0
   10.8301   -3.1290   17.5832 C   0  0  0  0  0  0  0  0  0  0  0  0
    6.7438   -7.4973   17.7359 C   0  0  0  0  0  0  0  0  0  0  0  0
    8.5781   -5.9390   18.1797 N   0  0  0  0  0  0  0  0  0  0  0  0
    9.9427   -4.7068   19.6371 C   0  0  0  0  0  0  0  0  0  0  0  0
    0.4794  -11.4482   19.9323 C   0  0  0  0  0  0  0  0  0  0  0  0
    2.8970  -10.2853   17.8533 C   0  0  0  0  0  0  0  0  0  0  0  0
    9.9066   -4.1176   17.2835 C   0  0  0  0  0  0  0  0  0  0  0  0
    9.4685   -4.9581   18.3697 C   0  0  0  0  0  0  0  0  0  0  0  0
    6.5959   -6.5143   15.2606 C   0  0  0  0  0  0  0  0  0  0  0  0
    5.7287   -7.9676   16.9587 C   0  0  0  0  0  0  0  0  0  0  0  0
    7.6332   -6.5041   17.3535 C   0  0  0  0  0  0  0  0  0  0  0  0
    3.8550  -10.6808   18.6840 N   0  0  0  0  0  0  0  0  0  0  0  0
   11.0986   -3.3658   21.2207 C   0  0  0  0  0  0  0  0  0  0  0  0
    1.1160  -11.8135   21.0849 C   0  0  0  0  0  0  0  0  0  0  0  0
    4.7306   -8.9915   17.4326 C   0  0  0  0  0  0  0  0  0  0  0  0
   -1.3063  -10.5114   21.2530 C   0  0  0  0  0  0  0  0  0  0  0  0
    3.4124   -9.2810   17.0553 N   0  0  0  0  0  0  0  0  0  0  0  0
    9.4002   -4.2777   15.9890 C   0  0  0  0  0  0  0  0  0  0  0  0
   11.2565   -2.8190   18.8531 C   0  0  0  0  0  0  0  0  0  0  0  0
    1.3860   -9.2081   16.0076 C   0  0  0  0  0  0  0  0  0  0  0  0
   -0.6049  -10.8692   22.4441 C   0  0  0  0  0  0  0  0  0  0  0  0
    7.5780   -5.9951   16.0165 C   0  0  0  0  0  0  0  0  0  0  0  0
   -0.7359  -10.8450   20.0542 C   0  0  0  0  0  0  0  0  0  0  0  0
    1.0240  -11.7443   18.6054 C   0  0  0  0  0  0  0  0  0  0  0  0
    2.6597   -8.7525   16.1422 C   0  0  0  0  0  0  0  0  0  0  0  0
   10.7697   -3.6382   19.8893 C   0  0  0  0  0  0  0  0  0  0  0  0
    1.5848  -10.7455   17.7777 C   0  0  0  0  0  0  0  0  0  0  0  0
    5.6785   -7.4130   15.7047 C   0  0  0  0  0  0  0  0  0  0  0  0
  1 19  2  0
  2 24  4  0
  2 28  4  0
  3 19  1  0
  4 26  4  0
  4 33  4  0
  5 20  4  0
  5 27  4  0
  6 18  4  0
  6 21  4  0
  7 13  4  0
  7 25  4  0
  8 16  4  0
  8 17  4  0
  9 14  4  0
  9 17  4  0
 10 14  4  0
 10 32  4  0
 11 20  4  0
 11 29  4  0
 11 30  1  0
 12 18  4  0
 12 23  4  0
 12 33  4  0
 13 14  4  0
 13 24  4  0
 15 28  4  0
 15 34  4  0
 16 21  1  0
 16 34  4  0
 17 28  4  0
 19 32  1  0
 21 23  4  0
 22 27  4  0
 22 29  4  0
 23 31  4  0
 25 32  4  0
 26 31  4  0
 30 33  1  0
M  END
$$$$

 Created by Python create_sdf_string function

 34 39  0  0  0  0  0  0  0  0999 V2000
   11.7748   -2.4134   21.4869 O   0  0  0  0  0  0  0  0  0  0  0  0
    8.4571   -5.0280   15.5489 C   0  0  0  0  0  0  0  0  0  0  0  0
   10.6373   -4.1527   22.1338 O   0  0  0  0  0  0  0  0  0  0  0  0
    0.8865  -10.1736   16.8062 N   0  0  0  0  0  0  0  0  0  0  0  0
    0.6363  -11.5685   22.3514 C   0  0  0  0  0  0  0  0  0  0  0  0
    4.9382   -9.8865   18.4135 C   0  0  0  0  0  0  0  0  0  0  0  0
   10.8301   -3.1290   17.5832 C   0  0  0  0  0  0  0  0  0  0  0  0
    6.7438   -7.4973   17.7359 C   0  0  0  0  0  0  0  0  0  0  0  0
    8.5781   -5.9390   18.1797 N   0  0  0  0  0  0  0  0  0  0  0  0
    9.9427   -4.7068   19.6371 C   0  0  0  0  0  0  0  0  0  0  0  0
    0.4794  -11.4482   19.9323 C   0  0  0  0  0  0  0  0  0  0  0  0
    2.8970  -10.2853   17.8533 C   0  0  0  0  0  0  0  0  0  0  0  0
    9.9066   -4.1176   17.2835 C   0  0  0  0  0  0  0  0  0  0  0  0
    9.4685   -4.9581   18.3697 C   0  0  0  0  0  0  0  0  0  0  0  0
    6.5959   -6.5143   15.2606 C   0  0  0  0  0  0  0  0  0  0  0  0
    5.7287   -7.9676   16.9587 C   0  0  0  0  0  0  0  0  0  0  0  0
    7.6332   -6.5041   17.3535 C   0  0  0  0  0  0  0  0  0  0  0  0
    3.8550  -10.6808   18.6840 N   0  0  0  0  0  0  0  0  0  0  0  0
   11.0986   -3.3658   21.2207 C   0  0  0  0  0  0  0  0  0  0  0  0
    1.1160  -11.8135   21.0849 C   0  0  0  0  0  0  0  0  0  0  0  0
    4.7306   -8.9915   17.4326 C   0  0  0  0  0  0  0  0  0  0  0  0
   -1.3063  -10.5114   21.2530 C   0  0  0  0  0  0  0  0  0  0  0  0
    3.4124   -9.2810   17.0553 N   0  0  0  0  0  0  0  0  0  0  0  0
    9.4002   -4.2777   15.9890 C   0  0  0  0  0  0  0  0  0  0  0  0
   11.2565   -2.8190   18.8531 C   0  0  0  0  0  0  0  0  0  0  0  0
    1.3860   -9.2081   16.0076 C   0  0  0  0  0  0  0  0  0  0  0  0
   -0.6049  -10.8692   22.4441 C   0  0  0  0  0  0  0  0  0  0  0  0
    7.5780   -5.9951   16.0165 C   0  0  0  0  0  0  0  0  0  0  0  0
   -0.7359  -10.8450   20.0542 C   0  0  0  0  0  0  0  0  0  0  0  0
    1.0240  -11.7443   18.6054 C   0  0  0  0  0  0  0  0  0  0  0  0
    2.6597   -8.7525   16.1422 C   0  0  0  0  0  0  0  0  0  0  0  0
   10.7697   -3.6382   19.8893 C   0  0  0  0  0  0  0  0  0  0  0  0
    1.5848  -10.7455   17.7777 C   0  0  0  0  0  0  0  0  0  0  0  0
    5.6785   -7.4130   15.7047 C   0  0  0  0  0  0  0  0  0  0  0  0
  1 19  2  0
  2 24  4  0
  2 28  4  0
  3 19  1  0
  4 26  4  0
  4 33  4  0
  5 20  4  0
  5 27  4  0
  6 18  4  0
  6 21  4  0
  7 13  4  0
  7 25  4  0
  8 16  4  0
  8 17  4  0
  9 14  4  0
  9 17  4  0
 10 14  4  0
 10 32  4  0
 11 20  4  0
 11 29  4  0
 11 30  1  0
 12 18  4  0
 12 23  4  0
 12 33  4  0
 13 14  4  0
 13 24  4  0
 15 28  4  0
 15 34  4  0
 16 21  1  0
 16 34  4  0
 17 28  4  0
 19 32  1  0
 21 23  4  0
 22 27  4  0
 22 29  4  0
 23 31  4  0
 25 32  4  0
 26 31  4  0
 30 33  1  0
M  END
$$$$

 Created by Python create_sdf_string function

 34 39  0  0  0  0  0  0  0  0999 V2000
   11.7748   -2.4134   21.4869 O   0  0  0  0  0  0  0  0  0  0  0  0
    8.4571   -5.0280   15.5489 C   0  0  0  0  0  0  0  0  0  0  0  0
   10.6373   -4.1527   22.1338 O   0  0  0  0  0  0  0  0  0  0  0  0
    0.8865  -10.1736   16.8062 N   0  0  0  0  0  0  0  0  0  0  0  0
    0.6363  -11.5685   22.3514 C   0  0  0  0  0  0  0  0  0  0  0  0
    4.9382   -9.8865   18.4135 C   0  0  0  0  0  0  0  0  0  0  0  0
   10.8301   -3.1290   17.5832 C   0  0  0  0  0  0  0  0  0  0  0  0
    6.7438   -7.4973   17.7359 C   0  0  0  0  0  0  0  0  0  0  0  0
    8.5781   -5.9390   18.1797 N   0  0  0  0  0  0  0  0  0  0  0  0
    9.9427   -4.7068   19.6371 C   0  0  0  0  0  0  0  0  0  0  0  0
    0.4794  -11.4482   19.9323 C   0  0  0  0  0  0  0  0  0  0  0  0
    2.8970  -10.2853   17.8533 C   0  0  0  0  0  0  0  0  0  0  0  0
    9.9066   -4.1176   17.2835 C   0  0  0  0  0  0  0  0  0  0  0  0
    9.4685   -4.9581   18.3697 C   0  0  0  0  0  0  0  0  0  0  0  0
    6.5959   -6.5143   15.2606 C   0  0  0  0  0  0  0  0  0  0  0  0
    5.7287   -7.9676   16.9587 C   0  0  0  0  0  0  0  0  0  0  0  0
    7.6332   -6.5041   17.3535 C   0  0  0  0  0  0  0  0  0  0  0  0
    3.8550  -10.6808   18.6840 N   0  0  0  0  0  0  0  0  0  0  0  0
   11.0986   -3.3658   21.2207 C   0  0  0  0  0  0  0  0  0  0  0  0
    1.1160  -11.8135   21.0849 C   0  0  0  0  0  0  0  0  0  0  0  0
    4.7306   -8.9915   17.4326 C   0  0  0  0  0  0  0  0  0  0  0  0
   -1.3063  -10.5114   21.2530 C   0  0  0  0  0  0  0  0  0  0  0  0
    3.4124   -9.2810   17.0553 N   0  0  0  0  0  0  0  0  0  0  0  0
    9.4002   -4.2777   15.9890 C   0  0  0  0  0  0  0  0  0  0  0  0
   11.2565   -2.8190   18.8531 C   0  0  0  0  0  0  0  0  0  0  0  0
    1.3860   -9.2081   16.0076 C   0  0  0  0  0  0  0  0  0  0  0  0
   -0.6049  -10.8692   22.4441 C   0  0  0  0  0  0  0  0  0  0  0  0
    7.5780   -5.9951   16.0165 C   0  0  0  0  0  0  0  0  0  0  0  0
   -0.7359  -10.8450   20.0542 C   0  0  0  0  0  0  0  0  0  0  0  0
    1.0240  -11.7443   18.6054 C   0  0  0  0  0  0  0  0  0  0  0  0
    2.6597   -8.7525   16.1422 C   0  0  0  0  0  0  0  0  0  0  0  0
   10.7697   -3.6382   19.8893 C   0  0  0  0  0  0  0  0  0  0  0  0
    1.5848  -10.7455   17.7777 C   0  0  0  0  0  0  0  0  0  0  0  0
    5.6785   -7.4130   15.7047 C   0  0  0  0  0  0  0  0  0  0  0  0
  1 19  2  0
  2 24  4  0
  2 28  4  0
  3 19  1  0
  4 26  4  0
  4 33  4  0
  5 20  4  0
  5 27  4  0
  6 18  4  0
  6 21  4  0
  7 13  4  0
  7 25  4  0
  8 16  4  0
  8 17  4  0
  9 14  4  0
  9 17  4  0
 10 14  4  0
 10 32  4  0
 11 20  4  0
 11 29  4  0
 11 30  1  0
 12 18  4  0
 12 23  4  0
 12 33  4  0
 13 14  4  0
 13 24  4  0
 15 28  4  0
 15 34  4  0
 16 21  1  0
 16 34  4  0
 17 28  4  0
 19 32  1  0
 21 23  4  0
 22 27  4  0
 22 29  4  0
 23 31  4  0
 25 32  4  0
 26 31  4  0
 30 33  1  0
M  END
